file 6149668 1661090582                                         
version 3
run General-0-20220821-22:02:56-5046
attr configname General
attr datetime 20220821-22:02:56
attr datetimef 20220821-220256
attr experiment General
attr inifile auto-generated.ini
attr iterationvars ""
attr iterationvarsd ""
attr iterationvarsf ""
attr measurement ""
attr network partial_mesh
attr processid 5046
attr repetition 0
attr replication #0
attr resultdir results
attr runnumber 0
attr seedset 0
config image-path ../../inet/images
config network partial_mesh
config sim-time-limit 1ms
config record-eventlog false
config **.result-recording-modes all
config *.*.eth[*].bitrate 1Gbps
config **.visualizer.interfaceTableVisualizer.displayInterfaceTables true
config partial_mesh.es_1.numApps 18
config partial_mesh.es_1.hasOutgoingStreams true
config partial_mesh.es_1.hasIncomingStreams true
config partial_mesh.es_2.numApps 20
config partial_mesh.es_2.hasOutgoingStreams true
config partial_mesh.es_2.hasIncomingStreams true
config partial_mesh.es_3.numApps 21
config partial_mesh.es_3.hasOutgoingStreams true
config partial_mesh.es_3.hasIncomingStreams true
config partial_mesh.es_4.numApps 21
config partial_mesh.es_4.hasOutgoingStreams true
config partial_mesh.es_4.hasIncomingStreams true
config partial_mesh.es_5.numApps 17
config partial_mesh.es_5.hasOutgoingStreams true
config partial_mesh.es_5.hasIncomingStreams true
config partial_mesh.es_6.numApps 23
config partial_mesh.es_6.hasOutgoingStreams true
config partial_mesh.es_6.hasIncomingStreams true
config partial_mesh.es_*.hasEgressTrafficShaping true
config partial_mesh.s_*.hasIncomingStreams true
config partial_mesh.s_*.hasOutgoingStreams true
config partial_mesh.s_*.hasEgressTrafficShaping true
config partial_mesh.es_6.app[0].typename UdpSourceApp
config partial_mesh.es_6.app[0].display-name tsn-0
config partial_mesh.es_6.app[0].io.destAddress "\"es_2\""
config partial_mesh.es_6.app[0].io.destPort 5000
config partial_mesh.es_6.app[0].source.packetNameFormat "\"%M-%m-%c\""
config partial_mesh.es_6.app[0].source.packetLength 40B
config partial_mesh.es_6.app[0].source.productionInterval 100us
config partial_mesh.es_6.app[0].source.initialProductionOffset 0us
config partial_mesh.es_2.app[0].typename UdpSinkApp
config partial_mesh.es_2.app[0].display-name tsn-0
config partial_mesh.es_2.app[0].io.localPort 5000
config partial_mesh.es_5.app[0].typename UdpSourceApp
config partial_mesh.es_5.app[0].display-name tsn-1
config partial_mesh.es_5.app[0].io.destAddress "\"es_6\""
config partial_mesh.es_5.app[0].io.destPort 5001
config partial_mesh.es_5.app[0].source.packetNameFormat "\"%M-%m-%c\""
config partial_mesh.es_5.app[0].source.packetLength 50B
config partial_mesh.es_5.app[0].source.productionInterval 2000us
config partial_mesh.es_5.app[0].source.initialProductionOffset 4us
config partial_mesh.es_6.app[1].typename UdpSinkApp
config partial_mesh.es_6.app[1].display-name tsn-1
config partial_mesh.es_6.app[1].io.localPort 5001
config partial_mesh.es_4.app[0].typename UdpSourceApp
config partial_mesh.es_4.app[0].display-name tsn-2
config partial_mesh.es_4.app[0].io.destAddress "\"es_3\""
config partial_mesh.es_4.app[0].io.destPort 5002
config partial_mesh.es_4.app[0].source.packetNameFormat "\"%M-%m-%c\""
config partial_mesh.es_4.app[0].source.packetLength 50B
config partial_mesh.es_4.app[0].source.productionInterval 1000us
config partial_mesh.es_4.app[0].source.initialProductionOffset 7us
config partial_mesh.es_3.app[0].typename UdpSinkApp
config partial_mesh.es_3.app[0].display-name tsn-2
config partial_mesh.es_3.app[0].io.localPort 5002
config partial_mesh.es_4.app[1].typename UdpSourceApp
config partial_mesh.es_4.app[1].display-name tsn-3
config partial_mesh.es_4.app[1].io.destAddress "\"es_3\""
config partial_mesh.es_4.app[1].io.destPort 5003
config partial_mesh.es_4.app[1].source.packetNameFormat "\"%M-%m-%c\""
config partial_mesh.es_4.app[1].source.packetLength 50B
config partial_mesh.es_4.app[1].source.productionInterval 200us
config partial_mesh.es_4.app[1].source.initialProductionOffset 0us
config partial_mesh.es_3.app[1].typename UdpSinkApp
config partial_mesh.es_3.app[1].display-name tsn-3
config partial_mesh.es_3.app[1].io.localPort 5003
config partial_mesh.es_1.app[0].typename UdpSourceApp
config partial_mesh.es_1.app[0].display-name tsn-4
config partial_mesh.es_1.app[0].io.destAddress "\"es_4\""
config partial_mesh.es_1.app[0].io.destPort 5004
config partial_mesh.es_1.app[0].source.packetNameFormat "\"%M-%m-%c\""
config partial_mesh.es_1.app[0].source.packetLength 80B
config partial_mesh.es_1.app[0].source.productionInterval 200us
config partial_mesh.es_1.app[0].source.initialProductionOffset 0us
config partial_mesh.es_4.app[2].typename UdpSinkApp
config partial_mesh.es_4.app[2].display-name tsn-4
config partial_mesh.es_4.app[2].io.localPort 5004
config partial_mesh.es_3.app[2].typename UdpSourceApp
config partial_mesh.es_3.app[2].display-name tsn-5
config partial_mesh.es_3.app[2].io.destAddress "\"es_6\""
config partial_mesh.es_3.app[2].io.destPort 5005
config partial_mesh.es_3.app[2].source.packetNameFormat "\"%M-%m-%c\""
config partial_mesh.es_3.app[2].source.packetLength 70B
config partial_mesh.es_3.app[2].source.productionInterval 400us
config partial_mesh.es_3.app[2].source.initialProductionOffset 1us
config partial_mesh.es_6.app[2].typename UdpSinkApp
config partial_mesh.es_6.app[2].display-name tsn-5
config partial_mesh.es_6.app[2].io.localPort 5005
config partial_mesh.es_1.app[1].typename UdpSourceApp
config partial_mesh.es_1.app[1].display-name tsn-6
config partial_mesh.es_1.app[1].io.destAddress "\"es_3\""
config partial_mesh.es_1.app[1].io.destPort 5006
config partial_mesh.es_1.app[1].source.packetNameFormat "\"%M-%m-%c\""
config partial_mesh.es_1.app[1].source.packetLength 40B
config partial_mesh.es_1.app[1].source.productionInterval 200us
config partial_mesh.es_1.app[1].source.initialProductionOffset 2us
config partial_mesh.es_3.app[3].typename UdpSinkApp
config partial_mesh.es_3.app[3].display-name tsn-6
config partial_mesh.es_3.app[3].io.localPort 5006
config partial_mesh.es_3.app[4].typename UdpSourceApp
config partial_mesh.es_3.app[4].display-name tsn-7
config partial_mesh.es_3.app[4].io.destAddress "\"es_2\""
config partial_mesh.es_3.app[4].io.destPort 5007
config partial_mesh.es_3.app[4].source.packetNameFormat "\"%M-%m-%c\""
config partial_mesh.es_3.app[4].source.packetLength 50B
config partial_mesh.es_3.app[4].source.productionInterval 500us
config partial_mesh.es_3.app[4].source.initialProductionOffset 7us
config partial_mesh.es_2.app[1].typename UdpSinkApp
config partial_mesh.es_2.app[1].display-name tsn-7
config partial_mesh.es_2.app[1].io.localPort 5007
config partial_mesh.es_2.app[2].typename UdpSourceApp
config partial_mesh.es_2.app[2].display-name tsn-8
config partial_mesh.es_2.app[2].io.destAddress "\"es_5\""
config partial_mesh.es_2.app[2].io.destPort 5008
config partial_mesh.es_2.app[2].source.packetNameFormat "\"%M-%m-%c\""
config partial_mesh.es_2.app[2].source.packetLength 90B
config partial_mesh.es_2.app[2].source.productionInterval 500us
config partial_mesh.es_2.app[2].source.initialProductionOffset 4us
config partial_mesh.es_5.app[1].typename UdpSinkApp
config partial_mesh.es_5.app[1].display-name tsn-8
config partial_mesh.es_5.app[1].io.localPort 5008
config partial_mesh.es_3.app[5].typename UdpSourceApp
config partial_mesh.es_3.app[5].display-name tsn-9
config partial_mesh.es_3.app[5].io.destAddress "\"es_6\""
config partial_mesh.es_3.app[5].io.destPort 5009
config partial_mesh.es_3.app[5].source.packetNameFormat "\"%M-%m-%c\""
config partial_mesh.es_3.app[5].source.packetLength 90B
config partial_mesh.es_3.app[5].source.productionInterval 1000us
config partial_mesh.es_3.app[5].source.initialProductionOffset 8us
config partial_mesh.es_6.app[3].typename UdpSinkApp
config partial_mesh.es_6.app[3].display-name tsn-9
config partial_mesh.es_6.app[3].io.localPort 5009
config partial_mesh.es_4.app[3].typename UdpSourceApp
config partial_mesh.es_4.app[3].display-name tsn-10
config partial_mesh.es_4.app[3].io.destAddress "\"es_2\""
config partial_mesh.es_4.app[3].io.destPort 5010
config partial_mesh.es_4.app[3].source.packetNameFormat "\"%M-%m-%c\""
config partial_mesh.es_4.app[3].source.packetLength 30B
config partial_mesh.es_4.app[3].source.productionInterval 200us
config partial_mesh.es_4.app[3].source.initialProductionOffset 1us
config partial_mesh.es_2.app[3].typename UdpSinkApp
config partial_mesh.es_2.app[3].display-name tsn-10
config partial_mesh.es_2.app[3].io.localPort 5010
config partial_mesh.es_2.app[4].typename UdpSourceApp
config partial_mesh.es_2.app[4].display-name tsn-11
config partial_mesh.es_2.app[4].io.destAddress "\"es_1\""
config partial_mesh.es_2.app[4].io.destPort 5011
config partial_mesh.es_2.app[4].source.packetNameFormat "\"%M-%m-%c\""
config partial_mesh.es_2.app[4].source.packetLength 60B
config partial_mesh.es_2.app[4].source.productionInterval 100us
config partial_mesh.es_2.app[4].source.initialProductionOffset 0us
config partial_mesh.es_1.app[2].typename UdpSinkApp
config partial_mesh.es_1.app[2].display-name tsn-11
config partial_mesh.es_1.app[2].io.localPort 5011
config partial_mesh.es_6.app[4].typename UdpSourceApp
config partial_mesh.es_6.app[4].display-name tsn-12
config partial_mesh.es_6.app[4].io.destAddress "\"es_4\""
config partial_mesh.es_6.app[4].io.destPort 5012
config partial_mesh.es_6.app[4].source.packetNameFormat "\"%M-%m-%c\""
config partial_mesh.es_6.app[4].source.packetLength 50B
config partial_mesh.es_6.app[4].source.productionInterval 200us
config partial_mesh.es_6.app[4].source.initialProductionOffset 3us
config partial_mesh.es_4.app[4].typename UdpSinkApp
config partial_mesh.es_4.app[4].display-name tsn-12
config partial_mesh.es_4.app[4].io.localPort 5012
config partial_mesh.es_2.app[5].typename UdpSourceApp
config partial_mesh.es_2.app[5].display-name tsn-13
config partial_mesh.es_2.app[5].io.destAddress "\"es_1\""
config partial_mesh.es_2.app[5].io.destPort 5013
config partial_mesh.es_2.app[5].source.packetNameFormat "\"%M-%m-%c\""
config partial_mesh.es_2.app[5].source.packetLength 60B
config partial_mesh.es_2.app[5].source.productionInterval 500us
config partial_mesh.es_2.app[5].source.initialProductionOffset 6us
config partial_mesh.es_1.app[3].typename UdpSinkApp
config partial_mesh.es_1.app[3].display-name tsn-13
config partial_mesh.es_1.app[3].io.localPort 5013
config partial_mesh.es_3.app[6].typename UdpSourceApp
config partial_mesh.es_3.app[6].display-name tsn-14
config partial_mesh.es_3.app[6].io.destAddress "\"es_2\""
config partial_mesh.es_3.app[6].io.destPort 5014
config partial_mesh.es_3.app[6].source.packetNameFormat "\"%M-%m-%c\""
config partial_mesh.es_3.app[6].source.packetLength 100B
config partial_mesh.es_3.app[6].source.productionInterval 400us
config partial_mesh.es_3.app[6].source.initialProductionOffset 3us
config partial_mesh.es_2.app[6].typename UdpSinkApp
config partial_mesh.es_2.app[6].display-name tsn-14
config partial_mesh.es_2.app[6].io.localPort 5014
config partial_mesh.es_3.app[7].typename UdpSourceApp
config partial_mesh.es_3.app[7].display-name tsn-15
config partial_mesh.es_3.app[7].io.destAddress "\"es_5\""
config partial_mesh.es_3.app[7].io.destPort 5015
config partial_mesh.es_3.app[7].source.packetNameFormat "\"%M-%m-%c\""
config partial_mesh.es_3.app[7].source.packetLength 80B
config partial_mesh.es_3.app[7].source.productionInterval 400us
config partial_mesh.es_3.app[7].source.initialProductionOffset 5us
config partial_mesh.es_5.app[2].typename UdpSinkApp
config partial_mesh.es_5.app[2].display-name tsn-15
config partial_mesh.es_5.app[2].io.localPort 5015
config partial_mesh.es_6.app[5].typename UdpSourceApp
config partial_mesh.es_6.app[5].display-name tsn-16
config partial_mesh.es_6.app[5].io.destAddress "\"es_2\""
config partial_mesh.es_6.app[5].io.destPort 5016
config partial_mesh.es_6.app[5].source.packetNameFormat "\"%M-%m-%c\""
config partial_mesh.es_6.app[5].source.packetLength 30B
config partial_mesh.es_6.app[5].source.productionInterval 100us
config partial_mesh.es_6.app[5].source.initialProductionOffset 1us
config partial_mesh.es_2.app[7].typename UdpSinkApp
config partial_mesh.es_2.app[7].display-name tsn-16
config partial_mesh.es_2.app[7].io.localPort 5016
config partial_mesh.es_1.app[4].typename UdpSourceApp
config partial_mesh.es_1.app[4].display-name tsn-17
config partial_mesh.es_1.app[4].io.destAddress "\"es_3\""
config partial_mesh.es_1.app[4].io.destPort 5017
config partial_mesh.es_1.app[4].source.packetNameFormat "\"%M-%m-%c\""
config partial_mesh.es_1.app[4].source.packetLength 50B
config partial_mesh.es_1.app[4].source.productionInterval 400us
config partial_mesh.es_1.app[4].source.initialProductionOffset 5us
config partial_mesh.es_3.app[8].typename UdpSinkApp
config partial_mesh.es_3.app[8].display-name tsn-17
config partial_mesh.es_3.app[8].io.localPort 5017
config partial_mesh.es_3.app[9].typename UdpSourceApp
config partial_mesh.es_3.app[9].display-name tsn-18
config partial_mesh.es_3.app[9].io.destAddress "\"es_4\""
config partial_mesh.es_3.app[9].io.destPort 5018
config partial_mesh.es_3.app[9].source.packetNameFormat "\"%M-%m-%c\""
config partial_mesh.es_3.app[9].source.packetLength 60B
config partial_mesh.es_3.app[9].source.productionInterval 1000us
config partial_mesh.es_3.app[9].source.initialProductionOffset 10us
config partial_mesh.es_4.app[5].typename UdpSinkApp
config partial_mesh.es_4.app[5].display-name tsn-18
config partial_mesh.es_4.app[5].io.localPort 5018
config partial_mesh.es_1.app[5].typename UdpSourceApp
config partial_mesh.es_1.app[5].display-name tsn-19
config partial_mesh.es_1.app[5].io.destAddress "\"es_5\""
config partial_mesh.es_1.app[5].io.destPort 5019
config partial_mesh.es_1.app[5].source.packetNameFormat "\"%M-%m-%c\""
config partial_mesh.es_1.app[5].source.packetLength 30B
config partial_mesh.es_1.app[5].source.productionInterval 500us
config partial_mesh.es_1.app[5].source.initialProductionOffset 6us
config partial_mesh.es_5.app[3].typename UdpSinkApp
config partial_mesh.es_5.app[3].display-name tsn-19
config partial_mesh.es_5.app[3].io.localPort 5019
config partial_mesh.es_6.app[6].typename UdpSourceApp
config partial_mesh.es_6.app[6].display-name tsn-20
config partial_mesh.es_6.app[6].io.destAddress "\"es_5\""
config partial_mesh.es_6.app[6].io.destPort 5020
config partial_mesh.es_6.app[6].source.packetNameFormat "\"%M-%m-%c\""
config partial_mesh.es_6.app[6].source.packetLength 70B
config partial_mesh.es_6.app[6].source.productionInterval 2000us
config partial_mesh.es_6.app[6].source.initialProductionOffset 8us
config partial_mesh.es_5.app[4].typename UdpSinkApp
config partial_mesh.es_5.app[4].display-name tsn-20
config partial_mesh.es_5.app[4].io.localPort 5020
config partial_mesh.es_1.app[6].typename UdpSourceApp
config partial_mesh.es_1.app[6].display-name tsn-21
config partial_mesh.es_1.app[6].io.destAddress "\"es_6\""
config partial_mesh.es_1.app[6].io.destPort 5021
config partial_mesh.es_1.app[6].source.packetNameFormat "\"%M-%m-%c\""
config partial_mesh.es_1.app[6].source.packetLength 90B
config partial_mesh.es_1.app[6].source.productionInterval 1000us
config partial_mesh.es_1.app[6].source.initialProductionOffset 7us
config partial_mesh.es_6.app[7].typename UdpSinkApp
config partial_mesh.es_6.app[7].display-name tsn-21
config partial_mesh.es_6.app[7].io.localPort 5021
config partial_mesh.es_5.app[5].typename UdpSourceApp
config partial_mesh.es_5.app[5].display-name tsn-22
config partial_mesh.es_5.app[5].io.destAddress "\"es_3\""
config partial_mesh.es_5.app[5].io.destPort 5022
config partial_mesh.es_5.app[5].source.packetNameFormat "\"%M-%m-%c\""
config partial_mesh.es_5.app[5].source.packetLength 30B
config partial_mesh.es_5.app[5].source.productionInterval 500us
config partial_mesh.es_5.app[5].source.initialProductionOffset 2us
config partial_mesh.es_3.app[10].typename UdpSinkApp
config partial_mesh.es_3.app[10].display-name tsn-22
config partial_mesh.es_3.app[10].io.localPort 5022
config partial_mesh.es_2.app[8].typename UdpSourceApp
config partial_mesh.es_2.app[8].display-name tsn-23
config partial_mesh.es_2.app[8].io.destAddress "\"es_4\""
config partial_mesh.es_2.app[8].io.destPort 5023
config partial_mesh.es_2.app[8].source.packetNameFormat "\"%M-%m-%c\""
config partial_mesh.es_2.app[8].source.packetLength 30B
config partial_mesh.es_2.app[8].source.productionInterval 400us
config partial_mesh.es_2.app[8].source.initialProductionOffset 3us
config partial_mesh.es_4.app[6].typename UdpSinkApp
config partial_mesh.es_4.app[6].display-name tsn-23
config partial_mesh.es_4.app[6].io.localPort 5023
config partial_mesh.es_6.app[8].typename UdpSourceApp
config partial_mesh.es_6.app[8].display-name tsn-24
config partial_mesh.es_6.app[8].io.destAddress "\"es_3\""
config partial_mesh.es_6.app[8].io.destPort 5024
config partial_mesh.es_6.app[8].source.packetNameFormat "\"%M-%m-%c\""
config partial_mesh.es_6.app[8].source.packetLength 50B
config partial_mesh.es_6.app[8].source.productionInterval 500us
config partial_mesh.es_6.app[8].source.initialProductionOffset 6us
config partial_mesh.es_3.app[11].typename UdpSinkApp
config partial_mesh.es_3.app[11].display-name tsn-24
config partial_mesh.es_3.app[11].io.localPort 5024
config partial_mesh.es_4.app[7].typename UdpSourceApp
config partial_mesh.es_4.app[7].display-name tsn-25
config partial_mesh.es_4.app[7].io.destAddress "\"es_3\""
config partial_mesh.es_4.app[7].io.destPort 5025
config partial_mesh.es_4.app[7].source.packetNameFormat "\"%M-%m-%c\""
config partial_mesh.es_4.app[7].source.packetLength 70B
config partial_mesh.es_4.app[7].source.productionInterval 400us
config partial_mesh.es_4.app[7].source.initialProductionOffset 5us
config partial_mesh.es_3.app[12].typename UdpSinkApp
config partial_mesh.es_3.app[12].display-name tsn-25
config partial_mesh.es_3.app[12].io.localPort 5025
config partial_mesh.es_2.app[9].typename UdpSourceApp
config partial_mesh.es_2.app[9].display-name tsn-26
config partial_mesh.es_2.app[9].io.destAddress "\"es_3\""
config partial_mesh.es_2.app[9].io.destPort 5026
config partial_mesh.es_2.app[9].source.packetNameFormat "\"%M-%m-%c\""
config partial_mesh.es_2.app[9].source.packetLength 70B
config partial_mesh.es_2.app[9].source.productionInterval 200us
config partial_mesh.es_2.app[9].source.initialProductionOffset 1us
config partial_mesh.es_3.app[13].typename UdpSinkApp
config partial_mesh.es_3.app[13].display-name tsn-26
config partial_mesh.es_3.app[13].io.localPort 5026
config partial_mesh.es_4.app[8].typename UdpSourceApp
config partial_mesh.es_4.app[8].display-name tsn-27
config partial_mesh.es_4.app[8].io.destAddress "\"es_6\""
config partial_mesh.es_4.app[8].io.destPort 5027
config partial_mesh.es_4.app[8].source.packetNameFormat "\"%M-%m-%c\""
config partial_mesh.es_4.app[8].source.packetLength 40B
config partial_mesh.es_4.app[8].source.productionInterval 200us
config partial_mesh.es_4.app[8].source.initialProductionOffset 2us
config partial_mesh.es_6.app[9].typename UdpSinkApp
config partial_mesh.es_6.app[9].display-name tsn-27
config partial_mesh.es_6.app[9].io.localPort 5027
config partial_mesh.es_1.app[7].typename UdpSourceApp
config partial_mesh.es_1.app[7].display-name tsn-28
config partial_mesh.es_1.app[7].io.destAddress "\"es_2\""
config partial_mesh.es_1.app[7].io.destPort 5028
config partial_mesh.es_1.app[7].source.packetNameFormat "\"%M-%m-%c\""
config partial_mesh.es_1.app[7].source.packetLength 100B
config partial_mesh.es_1.app[7].source.productionInterval 2000us
config partial_mesh.es_1.app[7].source.initialProductionOffset 9us
config partial_mesh.es_2.app[10].typename UdpSinkApp
config partial_mesh.es_2.app[10].display-name tsn-28
config partial_mesh.es_2.app[10].io.localPort 5028
config partial_mesh.es_1.app[8].typename UdpSourceApp
config partial_mesh.es_1.app[8].display-name tsn-29
config partial_mesh.es_1.app[8].io.destAddress "\"es_3\""
config partial_mesh.es_1.app[8].io.destPort 5029
config partial_mesh.es_1.app[8].source.packetNameFormat "\"%M-%m-%c\""
config partial_mesh.es_1.app[8].source.packetLength 70B
config partial_mesh.es_1.app[8].source.productionInterval 400us
config partial_mesh.es_1.app[8].source.initialProductionOffset 3us
config partial_mesh.es_3.app[14].typename UdpSinkApp
config partial_mesh.es_3.app[14].display-name tsn-29
config partial_mesh.es_3.app[14].io.localPort 5029
config partial_mesh.es_6.app[10].typename UdpSourceApp
config partial_mesh.es_6.app[10].display-name tsn-30
config partial_mesh.es_6.app[10].io.destAddress "\"es_4\""
config partial_mesh.es_6.app[10].io.destPort 5030
config partial_mesh.es_6.app[10].source.packetNameFormat "\"%M-%m-%c\""
config partial_mesh.es_6.app[10].source.packetLength 90B
config partial_mesh.es_6.app[10].source.productionInterval 2000us
config partial_mesh.es_6.app[10].source.initialProductionOffset 10us
config partial_mesh.es_4.app[9].typename UdpSinkApp
config partial_mesh.es_4.app[9].display-name tsn-30
config partial_mesh.es_4.app[9].io.localPort 5030
config partial_mesh.es_4.app[10].typename UdpSourceApp
config partial_mesh.es_4.app[10].display-name tsn-31
config partial_mesh.es_4.app[10].io.destAddress "\"es_2\""
config partial_mesh.es_4.app[10].io.destPort 5031
config partial_mesh.es_4.app[10].source.packetNameFormat "\"%M-%m-%c\""
config partial_mesh.es_4.app[10].source.packetLength 70B
config partial_mesh.es_4.app[10].source.productionInterval 200us
config partial_mesh.es_4.app[10].source.initialProductionOffset 3us
config partial_mesh.es_2.app[11].typename UdpSinkApp
config partial_mesh.es_2.app[11].display-name tsn-31
config partial_mesh.es_2.app[11].io.localPort 5031
config partial_mesh.es_6.app[11].typename UdpSourceApp
config partial_mesh.es_6.app[11].display-name tsn-32
config partial_mesh.es_6.app[11].io.destAddress "\"es_5\""
config partial_mesh.es_6.app[11].io.destPort 5032
config partial_mesh.es_6.app[11].source.packetNameFormat "\"%M-%m-%c\""
config partial_mesh.es_6.app[11].source.packetLength 70B
config partial_mesh.es_6.app[11].source.productionInterval 400us
config partial_mesh.es_6.app[11].source.initialProductionOffset 4us
config partial_mesh.es_5.app[6].typename UdpSinkApp
config partial_mesh.es_5.app[6].display-name tsn-32
config partial_mesh.es_5.app[6].io.localPort 5032
config partial_mesh.es_5.app[7].typename UdpSourceApp
config partial_mesh.es_5.app[7].display-name tsn-33
config partial_mesh.es_5.app[7].io.destAddress "\"es_4\""
config partial_mesh.es_5.app[7].io.destPort 5033
config partial_mesh.es_5.app[7].source.packetNameFormat "\"%M-%m-%c\""
config partial_mesh.es_5.app[7].source.packetLength 60B
config partial_mesh.es_5.app[7].source.productionInterval 500us
config partial_mesh.es_5.app[7].source.initialProductionOffset 1us
config partial_mesh.es_4.app[11].typename UdpSinkApp
config partial_mesh.es_4.app[11].display-name tsn-33
config partial_mesh.es_4.app[11].io.localPort 5033
config partial_mesh.es_5.app[8].typename UdpSourceApp
config partial_mesh.es_5.app[8].display-name tsn-34
config partial_mesh.es_5.app[8].io.destAddress "\"es_3\""
config partial_mesh.es_5.app[8].io.destPort 5034
config partial_mesh.es_5.app[8].source.packetNameFormat "\"%M-%m-%c\""
config partial_mesh.es_5.app[8].source.packetLength 50B
config partial_mesh.es_5.app[8].source.productionInterval 200us
config partial_mesh.es_5.app[8].source.initialProductionOffset 0us
config partial_mesh.es_3.app[15].typename UdpSinkApp
config partial_mesh.es_3.app[15].display-name tsn-34
config partial_mesh.es_3.app[15].io.localPort 5034
config partial_mesh.es_3.app[16].typename UdpSourceApp
config partial_mesh.es_3.app[16].display-name tsn-35
config partial_mesh.es_3.app[16].io.destAddress "\"es_2\""
config partial_mesh.es_3.app[16].io.destPort 5035
config partial_mesh.es_3.app[16].source.packetNameFormat "\"%M-%m-%c\""
config partial_mesh.es_3.app[16].source.packetLength 50B
config partial_mesh.es_3.app[16].source.productionInterval 100us
config partial_mesh.es_3.app[16].source.initialProductionOffset 0us
config partial_mesh.es_2.app[12].typename UdpSinkApp
config partial_mesh.es_2.app[12].display-name tsn-35
config partial_mesh.es_2.app[12].io.localPort 5035
config partial_mesh.es_6.app[12].typename UdpSourceApp
config partial_mesh.es_6.app[12].display-name tsn-36
config partial_mesh.es_6.app[12].io.destAddress "\"es_1\""
config partial_mesh.es_6.app[12].io.destPort 5036
config partial_mesh.es_6.app[12].source.packetNameFormat "\"%M-%m-%c\""
config partial_mesh.es_6.app[12].source.packetLength 40B
config partial_mesh.es_6.app[12].source.productionInterval 2000us
config partial_mesh.es_6.app[12].source.initialProductionOffset 7us
config partial_mesh.es_1.app[9].typename UdpSinkApp
config partial_mesh.es_1.app[9].display-name tsn-36
config partial_mesh.es_1.app[9].io.localPort 5036
config partial_mesh.es_6.app[13].typename UdpSourceApp
config partial_mesh.es_6.app[13].display-name tsn-37
config partial_mesh.es_6.app[13].io.destAddress "\"es_4\""
config partial_mesh.es_6.app[13].io.destPort 5037
config partial_mesh.es_6.app[13].source.packetNameFormat "\"%M-%m-%c\""
config partial_mesh.es_6.app[13].source.packetLength 50B
config partial_mesh.es_6.app[13].source.productionInterval 100us
config partial_mesh.es_6.app[13].source.initialProductionOffset 2us
config partial_mesh.es_4.app[12].typename UdpSinkApp
config partial_mesh.es_4.app[12].display-name tsn-37
config partial_mesh.es_4.app[12].io.localPort 5037
config partial_mesh.es_5.app[9].typename UdpSourceApp
config partial_mesh.es_5.app[9].display-name tsn-38
config partial_mesh.es_5.app[9].io.destAddress "\"es_2\""
config partial_mesh.es_5.app[9].io.destPort 5038
config partial_mesh.es_5.app[9].source.packetNameFormat "\"%M-%m-%c\""
config partial_mesh.es_5.app[9].source.packetLength 40B
config partial_mesh.es_5.app[9].source.productionInterval 1000us
config partial_mesh.es_5.app[9].source.initialProductionOffset 3us
config partial_mesh.es_2.app[13].typename UdpSinkApp
config partial_mesh.es_2.app[13].display-name tsn-38
config partial_mesh.es_2.app[13].io.localPort 5038
config partial_mesh.es_1.app[10].typename UdpSourceApp
config partial_mesh.es_1.app[10].display-name tsn-39
config partial_mesh.es_1.app[10].io.destAddress "\"es_5\""
config partial_mesh.es_1.app[10].io.destPort 5039
config partial_mesh.es_1.app[10].source.packetNameFormat "\"%M-%m-%c\""
config partial_mesh.es_1.app[10].source.packetLength 30B
config partial_mesh.es_1.app[10].source.productionInterval 2000us
config partial_mesh.es_1.app[10].source.initialProductionOffset 11us
config partial_mesh.es_5.app[10].typename UdpSinkApp
config partial_mesh.es_5.app[10].display-name tsn-39
config partial_mesh.es_5.app[10].io.localPort 5039
config partial_mesh.es_5.app[11].typename UdpSourceApp
config partial_mesh.es_5.app[11].display-name avb-40
config partial_mesh.es_5.app[11].io.destAddress "\"es_6\""
config partial_mesh.es_5.app[11].io.destPort 5040
config partial_mesh.es_5.app[11].source.packetNameFormat "\"%M-%m-%c\""
config partial_mesh.es_5.app[11].source.packetLength 1136B
config partial_mesh.es_5.app[11].source.productionInterval 125us
config partial_mesh.es_5.app[11].source.initialProductionOffset 0us
config partial_mesh.es_6.app[14].typename UdpSinkApp
config partial_mesh.es_6.app[14].display-name avb-40
config partial_mesh.es_6.app[14].io.localPort 5040
config partial_mesh.es_6.app[15].typename UdpSourceApp
config partial_mesh.es_6.app[15].display-name avb-41
config partial_mesh.es_6.app[15].io.destAddress "\"es_3\""
config partial_mesh.es_6.app[15].io.destPort 5041
config partial_mesh.es_6.app[15].source.packetNameFormat "\"%M-%m-%c\""
config partial_mesh.es_6.app[15].source.packetLength 1436B
config partial_mesh.es_6.app[15].source.productionInterval 125us
config partial_mesh.es_6.app[15].source.initialProductionOffset 0us
config partial_mesh.es_3.app[17].typename UdpSinkApp
config partial_mesh.es_3.app[17].display-name avb-41
config partial_mesh.es_3.app[17].io.localPort 5041
config partial_mesh.es_2.app[14].typename UdpSourceApp
config partial_mesh.es_2.app[14].display-name avb-42
config partial_mesh.es_2.app[14].io.destAddress "\"es_6\""
config partial_mesh.es_2.app[14].io.destPort 5042
config partial_mesh.es_2.app[14].source.packetNameFormat "\"%M-%m-%c\""
config partial_mesh.es_2.app[14].source.packetLength 936B
config partial_mesh.es_2.app[14].source.productionInterval 125us
config partial_mesh.es_2.app[14].source.initialProductionOffset 0us
config partial_mesh.es_6.app[16].typename UdpSinkApp
config partial_mesh.es_6.app[16].display-name avb-42
config partial_mesh.es_6.app[16].io.localPort 5042
config partial_mesh.es_3.app[18].typename UdpSourceApp
config partial_mesh.es_3.app[18].display-name avb-43
config partial_mesh.es_3.app[18].io.destAddress "\"es_1\""
config partial_mesh.es_3.app[18].io.destPort 5043
config partial_mesh.es_3.app[18].source.packetNameFormat "\"%M-%m-%c\""
config partial_mesh.es_3.app[18].source.packetLength 1036B
config partial_mesh.es_3.app[18].source.productionInterval 125us
config partial_mesh.es_3.app[18].source.initialProductionOffset 0us
config partial_mesh.es_1.app[11].typename UdpSinkApp
config partial_mesh.es_1.app[11].display-name avb-43
config partial_mesh.es_1.app[11].io.localPort 5043
config partial_mesh.es_5.app[12].typename UdpSourceApp
config partial_mesh.es_5.app[12].display-name avb-44
config partial_mesh.es_5.app[12].io.destAddress "\"es_4\""
config partial_mesh.es_5.app[12].io.destPort 5044
config partial_mesh.es_5.app[12].source.packetNameFormat "\"%M-%m-%c\""
config partial_mesh.es_5.app[12].source.packetLength 1036B
config partial_mesh.es_5.app[12].source.productionInterval 125us
config partial_mesh.es_5.app[12].source.initialProductionOffset 0us
config partial_mesh.es_4.app[13].typename UdpSinkApp
config partial_mesh.es_4.app[13].display-name avb-44
config partial_mesh.es_4.app[13].io.localPort 5044
config partial_mesh.es_4.app[14].typename UdpSourceApp
config partial_mesh.es_4.app[14].display-name avb-45
config partial_mesh.es_4.app[14].io.destAddress "\"es_5\""
config partial_mesh.es_4.app[14].io.destPort 5045
config partial_mesh.es_4.app[14].source.packetNameFormat "\"%M-%m-%c\""
config partial_mesh.es_4.app[14].source.packetLength 936B
config partial_mesh.es_4.app[14].source.productionInterval 125us
config partial_mesh.es_4.app[14].source.initialProductionOffset 0us
config partial_mesh.es_5.app[13].typename UdpSinkApp
config partial_mesh.es_5.app[13].display-name avb-45
config partial_mesh.es_5.app[13].io.localPort 5045
config partial_mesh.es_6.app[17].typename UdpSourceApp
config partial_mesh.es_6.app[17].display-name avb-46
config partial_mesh.es_6.app[17].io.destAddress "\"es_1\""
config partial_mesh.es_6.app[17].io.destPort 5046
config partial_mesh.es_6.app[17].source.packetNameFormat "\"%M-%m-%c\""
config partial_mesh.es_6.app[17].source.packetLength 1036B
config partial_mesh.es_6.app[17].source.productionInterval 125us
config partial_mesh.es_6.app[17].source.initialProductionOffset 0us
config partial_mesh.es_1.app[12].typename UdpSinkApp
config partial_mesh.es_1.app[12].display-name avb-46
config partial_mesh.es_1.app[12].io.localPort 5046
config partial_mesh.es_4.app[15].typename UdpSourceApp
config partial_mesh.es_4.app[15].display-name avb-47
config partial_mesh.es_4.app[15].io.destAddress "\"es_2\""
config partial_mesh.es_4.app[15].io.destPort 5047
config partial_mesh.es_4.app[15].source.packetNameFormat "\"%M-%m-%c\""
config partial_mesh.es_4.app[15].source.packetLength 1336B
config partial_mesh.es_4.app[15].source.productionInterval 125us
config partial_mesh.es_4.app[15].source.initialProductionOffset 0us
config partial_mesh.es_2.app[15].typename UdpSinkApp
config partial_mesh.es_2.app[15].display-name avb-47
config partial_mesh.es_2.app[15].io.localPort 5047
config partial_mesh.es_1.app[13].typename UdpSourceApp
config partial_mesh.es_1.app[13].display-name avb-48
config partial_mesh.es_1.app[13].io.destAddress "\"es_6\""
config partial_mesh.es_1.app[13].io.destPort 5048
config partial_mesh.es_1.app[13].source.packetNameFormat "\"%M-%m-%c\""
config partial_mesh.es_1.app[13].source.packetLength 1436B
config partial_mesh.es_1.app[13].source.productionInterval 125us
config partial_mesh.es_1.app[13].source.initialProductionOffset 0us
config partial_mesh.es_6.app[18].typename UdpSinkApp
config partial_mesh.es_6.app[18].display-name avb-48
config partial_mesh.es_6.app[18].io.localPort 5048
config partial_mesh.es_3.app[19].typename UdpSourceApp
config partial_mesh.es_3.app[19].display-name avb-49
config partial_mesh.es_3.app[19].io.destAddress "\"es_2\""
config partial_mesh.es_3.app[19].io.destPort 5049
config partial_mesh.es_3.app[19].source.packetNameFormat "\"%M-%m-%c\""
config partial_mesh.es_3.app[19].source.packetLength 936B
config partial_mesh.es_3.app[19].source.productionInterval 125us
config partial_mesh.es_3.app[19].source.initialProductionOffset 0us
config partial_mesh.es_2.app[16].typename UdpSinkApp
config partial_mesh.es_2.app[16].display-name avb-49
config partial_mesh.es_2.app[16].io.localPort 5049
config partial_mesh.es_2.app[17].typename UdpSourceApp
config partial_mesh.es_2.app[17].display-name avb-50
config partial_mesh.es_2.app[17].io.destAddress "\"es_1\""
config partial_mesh.es_2.app[17].io.destPort 5050
config partial_mesh.es_2.app[17].source.packetNameFormat "\"%M-%m-%c\""
config partial_mesh.es_2.app[17].source.packetLength 936B
config partial_mesh.es_2.app[17].source.productionInterval 125us
config partial_mesh.es_2.app[17].source.initialProductionOffset 0us
config partial_mesh.es_1.app[14].typename UdpSinkApp
config partial_mesh.es_1.app[14].display-name avb-50
config partial_mesh.es_1.app[14].io.localPort 5050
config partial_mesh.es_4.app[16].typename UdpSourceApp
config partial_mesh.es_4.app[16].display-name avb-51
config partial_mesh.es_4.app[16].io.destAddress "\"es_2\""
config partial_mesh.es_4.app[16].io.destPort 5051
config partial_mesh.es_4.app[16].source.packetNameFormat "\"%M-%m-%c\""
config partial_mesh.es_4.app[16].source.packetLength 1336B
config partial_mesh.es_4.app[16].source.productionInterval 125us
config partial_mesh.es_4.app[16].source.initialProductionOffset 0us
config partial_mesh.es_2.app[18].typename UdpSinkApp
config partial_mesh.es_2.app[18].display-name avb-51
config partial_mesh.es_2.app[18].io.localPort 5051
config partial_mesh.es_3.app[20].typename UdpSourceApp
config partial_mesh.es_3.app[20].display-name avb-52
config partial_mesh.es_3.app[20].io.destAddress "\"es_2\""
config partial_mesh.es_3.app[20].io.destPort 5052
config partial_mesh.es_3.app[20].source.packetNameFormat "\"%M-%m-%c\""
config partial_mesh.es_3.app[20].source.packetLength 1136B
config partial_mesh.es_3.app[20].source.productionInterval 125us
config partial_mesh.es_3.app[20].source.initialProductionOffset 0us
config partial_mesh.es_2.app[19].typename UdpSinkApp
config partial_mesh.es_2.app[19].display-name avb-52
config partial_mesh.es_2.app[19].io.localPort 5052
config partial_mesh.es_1.app[15].typename UdpSourceApp
config partial_mesh.es_1.app[15].display-name avb-53
config partial_mesh.es_1.app[15].io.destAddress "\"es_4\""
config partial_mesh.es_1.app[15].io.destPort 5053
config partial_mesh.es_1.app[15].source.packetNameFormat "\"%M-%m-%c\""
config partial_mesh.es_1.app[15].source.packetLength 1136B
config partial_mesh.es_1.app[15].source.productionInterval 125us
config partial_mesh.es_1.app[15].source.initialProductionOffset 0us
config partial_mesh.es_4.app[17].typename UdpSinkApp
config partial_mesh.es_4.app[17].display-name avb-53
config partial_mesh.es_4.app[17].io.localPort 5053
config partial_mesh.es_4.app[18].typename UdpSourceApp
config partial_mesh.es_4.app[18].display-name avb-54
config partial_mesh.es_4.app[18].io.destAddress "\"es_6\""
config partial_mesh.es_4.app[18].io.destPort 5054
config partial_mesh.es_4.app[18].source.packetNameFormat "\"%M-%m-%c\""
config partial_mesh.es_4.app[18].source.packetLength 1436B
config partial_mesh.es_4.app[18].source.productionInterval 125us
config partial_mesh.es_4.app[18].source.initialProductionOffset 0us
config partial_mesh.es_6.app[19].typename UdpSinkApp
config partial_mesh.es_6.app[19].display-name avb-54
config partial_mesh.es_6.app[19].io.localPort 5054
config partial_mesh.es_5.app[14].typename UdpSourceApp
config partial_mesh.es_5.app[14].display-name avb-55
config partial_mesh.es_5.app[14].io.destAddress "\"es_1\""
config partial_mesh.es_5.app[14].io.destPort 5055
config partial_mesh.es_5.app[14].source.packetNameFormat "\"%M-%m-%c\""
config partial_mesh.es_5.app[14].source.packetLength 1336B
config partial_mesh.es_5.app[14].source.productionInterval 125us
config partial_mesh.es_5.app[14].source.initialProductionOffset 0us
config partial_mesh.es_1.app[16].typename UdpSinkApp
config partial_mesh.es_1.app[16].display-name avb-55
config partial_mesh.es_1.app[16].io.localPort 5055
config partial_mesh.es_6.app[20].typename UdpSourceApp
config partial_mesh.es_6.app[20].display-name avb-56
config partial_mesh.es_6.app[20].io.destAddress "\"es_5\""
config partial_mesh.es_6.app[20].io.destPort 5056
config partial_mesh.es_6.app[20].source.packetNameFormat "\"%M-%m-%c\""
config partial_mesh.es_6.app[20].source.packetLength 1036B
config partial_mesh.es_6.app[20].source.productionInterval 125us
config partial_mesh.es_6.app[20].source.initialProductionOffset 0us
config partial_mesh.es_5.app[15].typename UdpSinkApp
config partial_mesh.es_5.app[15].display-name avb-56
config partial_mesh.es_5.app[15].io.localPort 5056
config partial_mesh.es_6.app[21].typename UdpSourceApp
config partial_mesh.es_6.app[21].display-name avb-57
config partial_mesh.es_6.app[21].io.destAddress "\"es_1\""
config partial_mesh.es_6.app[21].io.destPort 5057
config partial_mesh.es_6.app[21].source.packetNameFormat "\"%M-%m-%c\""
config partial_mesh.es_6.app[21].source.packetLength 1036B
config partial_mesh.es_6.app[21].source.productionInterval 125us
config partial_mesh.es_6.app[21].source.initialProductionOffset 0us
config partial_mesh.es_1.app[17].typename UdpSinkApp
config partial_mesh.es_1.app[17].display-name avb-57
config partial_mesh.es_1.app[17].io.localPort 5057
config partial_mesh.es_4.app[19].typename UdpSourceApp
config partial_mesh.es_4.app[19].display-name avb-58
config partial_mesh.es_4.app[19].io.destAddress "\"es_5\""
config partial_mesh.es_4.app[19].io.destPort 5058
config partial_mesh.es_4.app[19].source.packetNameFormat "\"%M-%m-%c\""
config partial_mesh.es_4.app[19].source.packetLength 1236B
config partial_mesh.es_4.app[19].source.productionInterval 125us
config partial_mesh.es_4.app[19].source.initialProductionOffset 0us
config partial_mesh.es_5.app[16].typename UdpSinkApp
config partial_mesh.es_5.app[16].display-name avb-58
config partial_mesh.es_5.app[16].io.localPort 5058
config partial_mesh.es_4.app[20].typename UdpSourceApp
config partial_mesh.es_4.app[20].display-name avb-59
config partial_mesh.es_4.app[20].io.destAddress "\"es_6\""
config partial_mesh.es_4.app[20].io.destPort 5059
config partial_mesh.es_4.app[20].source.packetNameFormat "\"%M-%m-%c\""
config partial_mesh.es_4.app[20].source.packetLength 936B
config partial_mesh.es_4.app[20].source.productionInterval 125us
config partial_mesh.es_4.app[20].source.initialProductionOffset 0us
config partial_mesh.es_6.app[22].typename UdpSinkApp
config partial_mesh.es_6.app[22].display-name avb-59
config partial_mesh.es_6.app[22].io.localPort 5059
config *.*.eth[*].macLayer.queue.classifier.mapping "[[0, 0, 0, 0, 0, 0, 0, 0],\n                                                [0, 0, 0, 0, 0, 1, 1, 1],\n                                                [0, 0, 0, 1, 1, 2, 2, 2],\n                                                [0, 0, 0, 1, 1, 2, 3, 3],\n                                                [0, 1, 1, 2, 2, 3, 4, 4],\n                                                [0, 1, 1, 2, 2, 3, 4, 5],\n                                                [0, 1, 2, 3, 3, 4, 5, 6],\n                                                [0, 1, 2, 3, 4, 5, 6, 7]]"
config *.macForwardingTableConfigurator.typename ""
config *.*.hasStreamRedundancy true
config *.*.bridging.streamRelay.typename StreamRelayLayer
config *.*.bridging.streamCoder.typename StreamCoderLayer
config *.streamRedundancyConfigurator.typename r438StreamRedundancyConfigurator
config *.streamRedundancyConfigurator.configuration "[\n\t{pcp: 0, name: \"tsn-0\", packetFilter: \"*-tsn-0-*\", source: \"es_6\", destination: \"es_2\", trees: [[[\"es_6\", \"s_12\", \"s_11\", \"s_7\", \"s_3\", \"s_4\", \"es_2\"]], [[\"es_6\", \"s_12\", \"s_8\", \"s_4\", \"es_2\"]]]},\n\t{pcp: 0, name: \"tsn-1\", packetFilter: \"*-tsn-1-*\", source: \"es_5\", destination: \"es_6\", trees: [[[\"es_5\", \"s_9\", \"s_5\", \"s_1\", \"s_2\", \"s_3\", \"s_4\", \"s_8\", \"s_12\", \"es_6\"]], [[\"es_5\", \"s_9\", \"s_10\", \"s_11\", \"s_12\", \"es_6\"]]]},\n\t{pcp: 1, name: \"tsn-2\", packetFilter: \"*-tsn-2-*\", source: \"es_4\", destination: \"es_3\", trees: [[[\"es_4\", \"s_8\", \"s_7\", \"s_6\", \"s_5\", \"es_3\"]], [[\"es_4\", \"s_8\", \"s_12\", \"s_11\", \"s_10\", \"s_9\", \"s_5\", \"es_3\"]]]},\n\t{pcp: 0, name: \"tsn-3\", packetFilter: \"*-tsn-3-*\", source: \"es_4\", destination: \"es_3\", trees: [[[\"es_4\", \"s_8\", \"s_7\", \"s_6\", \"s_5\", \"es_3\"]], [[\"es_4\", \"s_8\", \"s_4\", \"s_3\", \"s_2\", \"s_1\", \"s_5\", \"es_3\"]]]},\n\t{pcp: 0, name: \"tsn-4\", packetFilter: \"*-tsn-4-*\", source: \"es_1\", destination: \"es_4\", trees: [[[\"es_1\", \"s_1\", \"s_2\", \"s_3\", \"s_4\", \"s_8\", \"es_4\"]], [[\"es_1\", \"s_1\", \"s_5\", \"s_6\", \"s_7\", \"s_8\", \"es_4\"]]]},\n\t{pcp: 0, name: \"tsn-5\", packetFilter: \"*-tsn-5-*\", source: \"es_3\", destination: \"es_6\", trees: [[[\"es_3\", \"s_5\", \"s_6\", \"s_7\", \"s_8\", \"s_12\", \"es_6\"]], [[\"es_3\", \"s_5\", \"s_9\", \"s_10\", \"s_11\", \"s_12\", \"es_6\"]]]},\n\t{pcp: 0, name: \"tsn-6\", packetFilter: \"*-tsn-6-*\", source: \"es_1\", destination: \"es_3\", trees: [[[\"es_1\", \"s_1\", \"s_2\", \"s_6\", \"s_5\", \"es_3\"]], [[\"es_1\", \"s_1\", \"s_5\", \"es_3\"]]]},\n\t{pcp: 0, name: \"tsn-7\", packetFilter: \"*-tsn-7-*\", source: \"es_3\", destination: \"es_2\", trees: [[[\"es_3\", \"s_5\", \"s_1\", \"s_2\", \"s_3\", \"s_4\", \"es_2\"]], [[\"es_3\", \"s_5\", \"s_6\", \"s_7\", \"s_8\", \"s_4\", \"es_2\"]]]},\n\t{pcp: 0, name: \"tsn-8\", packetFilter: \"*-tsn-8-*\", source: \"es_2\", destination: \"es_5\", trees: [[[\"es_2\", \"s_4\", \"s_3\", \"s_2\", \"s_6\", \"s_5\", \"s_9\", \"es_5\"]], [[\"es_2\", \"s_4\", \"s_8\", \"s_12\", \"s_11\", \"s_10\", \"s_9\", \"es_5\"]]]},\n\t{pcp: 0, name: \"tsn-9\", packetFilter: \"*-tsn-9-*\", source: \"es_3\", destination: \"es_6\", trees: [[[\"es_3\", \"s_5\", \"s_1\", \"s_2\", \"s_3\", \"s_7\", \"s_8\", \"s_12\", \"es_6\"]], [[\"es_3\", \"s_5\", \"s_9\", \"s_10\", \"s_11\", \"s_12\", \"es_6\"]]]},\n\t{pcp: 0, name: \"tsn-10\", packetFilter: \"*-tsn-10-*\", source: \"es_4\", destination: \"es_2\", trees: [[[\"es_4\", \"s_8\", \"s_7\", \"s_3\", \"s_4\", \"es_2\"]], [[\"es_4\", \"s_8\", \"s_4\", \"es_2\"]]]},\n\t{pcp: 0, name: \"tsn-11\", packetFilter: \"*-tsn-11-*\", source: \"es_2\", destination: \"es_1\", trees: [[[\"es_2\", \"s_4\", \"s_3\", \"s_2\", \"s_1\", \"es_1\"]], [[\"es_2\", \"s_4\", \"s_8\", \"s_12\", \"s_11\", \"s_10\", \"s_9\", \"s_5\", \"s_1\", \"es_1\"]]]},\n\t{pcp: 0, name: \"tsn-12\", packetFilter: \"*-tsn-12-*\", source: \"es_6\", destination: \"es_4\", trees: [[[\"es_6\", \"s_12\", \"s_11\", \"s_7\", \"s_8\", \"es_4\"]], [[\"es_6\", \"s_12\", \"s_8\", \"es_4\"]]]},\n\t{pcp: 0, name: \"tsn-13\", packetFilter: \"*-tsn-13-*\", source: \"es_2\", destination: \"es_1\", trees: [[[\"es_2\", \"s_4\", \"s_3\", \"s_2\", \"s_1\", \"es_1\"]], [[\"es_2\", \"s_4\", \"s_8\", \"s_7\", \"s_6\", \"s_5\", \"s_1\", \"es_1\"]]]},\n\t{pcp: 0, name: \"tsn-14\", packetFilter: \"*-tsn-14-*\", source: \"es_3\", destination: \"es_2\", trees: [[[\"es_3\", \"s_5\", \"s_1\", \"s_2\", \"s_3\", \"s_4\", \"es_2\"]], [[\"es_3\", \"s_5\", \"s_6\", \"s_7\", \"s_8\", \"s_4\", \"es_2\"]]]},\n\t{pcp: 1, name: \"tsn-15\", packetFilter: \"*-tsn-15-*\", source: \"es_3\", destination: \"es_5\", trees: [[[\"es_3\", \"s_5\", \"s_6\", \"s_10\", \"s_9\", \"es_5\"]], [[\"es_3\", \"s_5\", \"s_9\", \"es_5\"]]]},\n\t{pcp: 1, name: \"tsn-16\", packetFilter: \"*-tsn-16-*\", source: \"es_6\", destination: \"es_2\", trees: [[[\"es_6\", \"s_12\", \"s_11\", \"s_7\", \"s_3\", \"s_4\", \"es_2\"]], [[\"es_6\", \"s_12\", \"s_8\", \"s_4\", \"es_2\"]]]},\n\t{pcp: 0, name: \"tsn-17\", packetFilter: \"*-tsn-17-*\", source: \"es_1\", destination: \"es_3\", trees: [[[\"es_1\", \"s_1\", \"s_2\", \"s_6\", \"s_5\", \"es_3\"]], [[\"es_1\", \"s_1\", \"s_5\", \"es_3\"]]]},\n\t{pcp: 0, name: \"tsn-18\", packetFilter: \"*-tsn-18-*\", source: \"es_3\", destination: \"es_4\", trees: [[[\"es_3\", \"s_5\", \"s_6\", \"s_7\", \"s_8\", \"es_4\"]], [[\"es_3\", \"s_5\", \"s_9\", \"s_10\", \"s_11\", \"s_12\", \"s_8\", \"es_4\"]]]},\n\t{pcp: 1, name: \"tsn-19\", packetFilter: \"*-tsn-19-*\", source: \"es_1\", destination: \"es_5\", trees: [[[\"es_1\", \"s_1\", \"s_2\", \"s_6\", \"s_10\", \"s_9\", \"es_5\"]], [[\"es_1\", \"s_1\", \"s_5\", \"s_9\", \"es_5\"]]]},\n\t{pcp: 0, name: \"tsn-20\", packetFilter: \"*-tsn-20-*\", source: \"es_6\", destination: \"es_5\", trees: [[[\"es_6\", \"s_12\", \"s_11\", \"s_10\", \"s_9\", \"es_5\"]], [[\"es_6\", \"s_12\", \"s_8\", \"s_7\", \"s_6\", \"s_5\", \"s_9\", \"es_5\"]]]},\n\t{pcp: 0, name: \"tsn-21\", packetFilter: \"*-tsn-21-*\", source: \"es_1\", destination: \"es_6\", trees: [[[\"es_1\", \"s_1\", \"s_2\", \"s_3\", \"s_7\", \"s_8\", \"s_12\", \"es_6\"]], [[\"es_1\", \"s_1\", \"s_5\", \"s_9\", \"s_10\", \"s_11\", \"s_12\", \"es_6\"]]]},\n\t{pcp: 0, name: \"tsn-22\", packetFilter: \"*-tsn-22-*\", source: \"es_5\", destination: \"es_3\", trees: [[[\"es_5\", \"s_9\", \"s_5\", \"es_3\"]], [[\"es_5\", \"s_9\", \"s_10\", \"s_6\", \"s_5\", \"es_3\"]]]},\n\t{pcp: 0, name: \"tsn-23\", packetFilter: \"*-tsn-23-*\", source: \"es_2\", destination: \"es_4\", trees: [[[\"es_2\", \"s_4\", \"s_3\", \"s_7\", \"s_8\", \"es_4\"]], [[\"es_2\", \"s_4\", \"s_8\", \"es_4\"]]]},\n\t{pcp: 1, name: \"tsn-24\", packetFilter: \"*-tsn-24-*\", source: \"es_6\", destination: \"es_3\", trees: [[[\"es_6\", \"s_12\", \"s_11\", \"s_10\", \"s_9\", \"s_5\", \"es_3\"]], [[\"es_6\", \"s_12\", \"s_8\", \"s_7\", \"s_6\", \"s_5\", \"es_3\"]]]},\n\t{pcp: 0, name: \"tsn-25\", packetFilter: \"*-tsn-25-*\", source: \"es_4\", destination: \"es_3\", trees: [[[\"es_4\", \"s_8\", \"s_7\", \"s_6\", \"s_5\", \"es_3\"]], [[\"es_4\", \"s_8\", \"s_4\", \"s_3\", \"s_2\", \"s_1\", \"s_5\", \"es_3\"]]]},\n\t{pcp: 0, name: \"tsn-26\", packetFilter: \"*-tsn-26-*\", source: \"es_2\", destination: \"es_3\", trees: [[[\"es_2\", \"s_4\", \"s_3\", \"s_2\", \"s_1\", \"s_5\", \"es_3\"]], [[\"es_2\", \"s_4\", \"s_8\", \"s_7\", \"s_6\", \"s_10\", \"s_9\", \"s_5\", \"es_3\"]]]},\n\t{pcp: 0, name: \"tsn-27\", packetFilter: \"*-tsn-27-*\", source: \"es_4\", destination: \"es_6\", trees: [[[\"es_4\", \"s_8\", \"s_7\", \"s_11\", \"s_12\", \"es_6\"]], [[\"es_4\", \"s_8\", \"s_12\", \"es_6\"]]]},\n\t{pcp: 0, name: \"tsn-28\", packetFilter: \"*-tsn-28-*\", source: \"es_1\", destination: \"es_2\", trees: [[[\"es_1\", \"s_1\", \"s_2\", \"s_3\", \"s_4\", \"es_2\"]], [[\"es_1\", \"s_1\", \"s_5\", \"s_9\", \"s_10\", \"s_11\", \"s_7\", \"s_8\", \"s_4\", \"es_2\"]]]},\n\t{pcp: 0, name: \"tsn-29\", packetFilter: \"*-tsn-29-*\", source: \"es_1\", destination: \"es_3\", trees: [[[\"es_1\", \"s_1\", \"s_2\", \"s_6\", \"s_10\", \"s_9\", \"s_5\", \"es_3\"]], [[\"es_1\", \"s_1\", \"s_5\", \"es_3\"]]]},\n\t{pcp: 0, name: \"tsn-30\", packetFilter: \"*-tsn-30-*\", source: \"es_6\", destination: \"es_4\", trees: [[[\"es_6\", \"s_12\", \"s_11\", \"s_7\", \"s_8\", \"es_4\"]], [[\"es_6\", \"s_12\", \"s_8\", \"es_4\"]]]},\n\t{pcp: 0, name: \"tsn-31\", packetFilter: \"*-tsn-31-*\", source: \"es_4\", destination: \"es_2\", trees: [[[\"es_4\", \"s_8\", \"s_7\", \"s_3\", \"s_4\", \"es_2\"]], [[\"es_4\", \"s_8\", \"s_4\", \"es_2\"]]]},\n\t{pcp: 0, name: \"tsn-32\", packetFilter: \"*-tsn-32-*\", source: \"es_6\", destination: \"es_5\", trees: [[[\"es_6\", \"s_12\", \"s_11\", \"s_10\", \"s_9\", \"es_5\"]], [[\"es_6\", \"s_12\", \"s_8\", \"s_4\", \"s_3\", \"s_2\", \"s_1\", \"s_5\", \"s_9\", \"es_5\"]]]},\n\t{pcp: 0, name: \"tsn-33\", packetFilter: \"*-tsn-33-*\", source: \"es_5\", destination: \"es_4\", trees: [[[\"es_5\", \"s_9\", \"s_5\", \"s_6\", \"s_7\", \"s_8\", \"es_4\"]], [[\"es_5\", \"s_9\", \"s_10\", \"s_11\", \"s_12\", \"s_8\", \"es_4\"]]]},\n\t{pcp: 0, name: \"tsn-34\", packetFilter: \"*-tsn-34-*\", source: \"es_5\", destination: \"es_3\", trees: [[[\"es_5\", \"s_9\", \"s_5\", \"es_3\"]], [[\"es_5\", \"s_9\", \"s_10\", \"s_6\", \"s_5\", \"es_3\"]]]},\n\t{pcp: 0, name: \"tsn-35\", packetFilter: \"*-tsn-35-*\", source: \"es_3\", destination: \"es_2\", trees: [[[\"es_3\", \"s_5\", \"s_6\", \"s_2\", \"s_3\", \"s_4\", \"es_2\"]], [[\"es_3\", \"s_5\", \"s_9\", \"s_10\", \"s_11\", \"s_7\", \"s_8\", \"s_4\", \"es_2\"]]]},\n\t{pcp: 0, name: \"tsn-36\", packetFilter: \"*-tsn-36-*\", source: \"es_6\", destination: \"es_1\", trees: [[[\"es_6\", \"s_12\", \"s_11\", \"s_10\", \"s_9\", \"s_5\", \"s_1\", \"es_1\"]], [[\"es_6\", \"s_12\", \"s_8\", \"s_7\", \"s_3\", \"s_2\", \"s_1\", \"es_1\"]]]},\n\t{pcp: 0, name: \"tsn-37\", packetFilter: \"*-tsn-37-*\", source: \"es_6\", destination: \"es_4\", trees: [[[\"es_6\", \"s_12\", \"s_11\", \"s_7\", \"s_8\", \"es_4\"]], [[\"es_6\", \"s_12\", \"s_8\", \"es_4\"]]]},\n\t{pcp: 1, name: \"tsn-38\", packetFilter: \"*-tsn-38-*\", source: \"es_5\", destination: \"es_2\", trees: [[[\"es_5\", \"s_9\", \"s_5\", \"s_1\", \"s_2\", \"s_3\", \"s_4\", \"es_2\"]], [[\"es_5\", \"s_9\", \"s_10\", \"s_11\", \"s_7\", \"s_8\", \"s_4\", \"es_2\"]]]},\n\t{pcp: 1, name: \"tsn-39\", packetFilter: \"*-tsn-39-*\", source: \"es_1\", destination: \"es_5\", trees: [[[\"es_1\", \"s_1\", \"s_2\", \"s_6\", \"s_10\", \"s_9\", \"es_5\"]], [[\"es_1\", \"s_1\", \"s_5\", \"s_9\", \"es_5\"]]]},\n\t{pcp: 7, name: \"avb-40\", packetFilter: \"*-avb-40-*\", source: \"es_5\", destination: \"es_6\", trees: [[[\"es_5\", \"s_9\", \"s_5\", \"s_6\", \"s_7\", \"s_8\", \"s_12\", \"es_6\"]], [[\"es_5\", \"s_9\", \"s_10\", \"s_11\", \"s_12\", \"es_6\"]]]},\n\t{pcp: 7, name: \"avb-41\", packetFilter: \"*-avb-41-*\", source: \"es_6\", destination: \"es_3\", trees: [[[\"es_6\", \"s_12\", \"s_11\", \"s_10\", \"s_9\", \"s_5\", \"es_3\"]], [[\"es_6\", \"s_12\", \"s_8\", \"s_7\", \"s_6\", \"s_5\", \"es_3\"]]]},\n\t{pcp: 7, name: \"avb-42\", packetFilter: \"*-avb-42-*\", source: \"es_2\", destination: \"es_6\", trees: [[[\"es_2\", \"s_4\", \"s_3\", \"s_7\", \"s_11\", \"s_12\", \"es_6\"]], [[\"es_2\", \"s_4\", \"s_8\", \"s_12\", \"es_6\"]]]},\n\t{pcp: 7, name: \"avb-43\", packetFilter: \"*-avb-43-*\", source: \"es_3\", destination: \"es_1\", trees: [[[\"es_3\", \"s_5\", \"s_1\", \"es_1\"]], [[\"es_3\", \"s_5\", \"s_6\", \"s_2\", \"s_1\", \"es_1\"]]]},\n\t{pcp: 7, name: \"avb-44\", packetFilter: \"*-avb-44-*\", source: \"es_5\", destination: \"es_4\", trees: [[[\"es_5\", \"s_9\", \"s_5\", \"s_6\", \"s_7\", \"s_8\", \"es_4\"]], [[\"es_5\", \"s_9\", \"s_10\", \"s_11\", \"s_12\", \"s_8\", \"es_4\"]]]},\n\t{pcp: 7, name: \"avb-45\", packetFilter: \"*-avb-45-*\", source: \"es_4\", destination: \"es_5\", trees: [[[\"es_4\", \"s_8\", \"s_7\", \"s_6\", \"s_5\", \"s_9\", \"es_5\"]], [[\"es_4\", \"s_8\", \"s_12\", \"s_11\", \"s_10\", \"s_9\", \"es_5\"]]]},\n\t{pcp: 7, name: \"avb-46\", packetFilter: \"*-avb-46-*\", source: \"es_6\", destination: \"es_1\", trees: [[[\"es_6\", \"s_12\", \"s_11\", \"s_10\", \"s_6\", \"s_5\", \"s_1\", \"es_1\"]], [[\"es_6\", \"s_12\", \"s_8\", \"s_4\", \"s_3\", \"s_2\", \"s_1\", \"es_1\"]]]},\n\t{pcp: 7, name: \"avb-47\", packetFilter: \"*-avb-47-*\", source: \"es_4\", destination: \"es_2\", trees: [[[\"es_4\", \"s_8\", \"s_7\", \"s_3\", \"s_4\", \"es_2\"]], [[\"es_4\", \"s_8\", \"s_4\", \"es_2\"]]]},\n\t{pcp: 7, name: \"avb-48\", packetFilter: \"*-avb-48-*\", source: \"es_1\", destination: \"es_6\", trees: [[[\"es_1\", \"s_1\", \"s_2\", \"s_3\", \"s_4\", \"s_8\", \"s_12\", \"es_6\"]], [[\"es_1\", \"s_1\", \"s_5\", \"s_9\", \"s_10\", \"s_11\", \"s_12\", \"es_6\"]]]},\n\t{pcp: 7, name: \"avb-49\", packetFilter: \"*-avb-49-*\", source: \"es_3\", destination: \"es_2\", trees: [[[\"es_3\", \"s_5\", \"s_1\", \"s_2\", \"s_3\", \"s_4\", \"es_2\"]], [[\"es_3\", \"s_5\", \"s_6\", \"s_7\", \"s_8\", \"s_4\", \"es_2\"]]]},\n\t{pcp: 7, name: \"avb-50\", packetFilter: \"*-avb-50-*\", source: \"es_2\", destination: \"es_1\", trees: [[[\"es_2\", \"s_4\", \"s_3\", \"s_2\", \"s_1\", \"es_1\"]], [[\"es_2\", \"s_4\", \"s_8\", \"s_7\", \"s_6\", \"s_5\", \"s_1\", \"es_1\"]]]},\n\t{pcp: 7, name: \"avb-51\", packetFilter: \"*-avb-51-*\", source: \"es_4\", destination: \"es_2\", trees: [[[\"es_4\", \"s_8\", \"s_7\", \"s_3\", \"s_4\", \"es_2\"]], [[\"es_4\", \"s_8\", \"s_4\", \"es_2\"]]]},\n\t{pcp: 7, name: \"avb-52\", packetFilter: \"*-avb-52-*\", source: \"es_3\", destination: \"es_2\", trees: [[[\"es_3\", \"s_5\", \"s_1\", \"s_2\", \"s_3\", \"s_4\", \"es_2\"]], [[\"es_3\", \"s_5\", \"s_6\", \"s_7\", \"s_8\", \"s_4\", \"es_2\"]]]},\n\t{pcp: 7, name: \"avb-53\", packetFilter: \"*-avb-53-*\", source: \"es_1\", destination: \"es_4\", trees: [[[\"es_1\", \"s_1\", \"s_2\", \"s_3\", \"s_4\", \"s_8\", \"es_4\"]], [[\"es_1\", \"s_1\", \"s_5\", \"s_6\", \"s_7\", \"s_8\", \"es_4\"]]]},\n\t{pcp: 7, name: \"avb-54\", packetFilter: \"*-avb-54-*\", source: \"es_4\", destination: \"es_6\", trees: [[[\"es_4\", \"s_8\", \"s_7\", \"s_11\", \"s_12\", \"es_6\"]], [[\"es_4\", \"s_8\", \"s_12\", \"es_6\"]]]},\n\t{pcp: 7, name: \"avb-55\", packetFilter: \"*-avb-55-*\", source: \"es_5\", destination: \"es_1\", trees: [[[\"es_5\", \"s_9\", \"s_5\", \"s_1\", \"es_1\"]], [[\"es_5\", \"s_9\", \"s_10\", \"s_6\", \"s_2\", \"s_1\", \"es_1\"]]]},\n\t{pcp: 7, name: \"avb-56\", packetFilter: \"*-avb-56-*\", source: \"es_6\", destination: \"es_5\", trees: [[[\"es_6\", \"s_12\", \"s_11\", \"s_10\", \"s_9\", \"es_5\"]], [[\"es_6\", \"s_12\", \"s_8\", \"s_7\", \"s_6\", \"s_5\", \"s_9\", \"es_5\"]]]},\n\t{pcp: 7, name: \"avb-57\", packetFilter: \"*-avb-57-*\", source: \"es_6\", destination: \"es_1\", trees: [[[\"es_6\", \"s_12\", \"s_11\", \"s_10\", \"s_6\", \"s_5\", \"s_1\", \"es_1\"]], [[\"es_6\", \"s_12\", \"s_8\", \"s_4\", \"s_3\", \"s_2\", \"s_1\", \"es_1\"]]]},\n\t{pcp: 7, name: \"avb-58\", packetFilter: \"*-avb-58-*\", source: \"es_4\", destination: \"es_5\", trees: [[[\"es_4\", \"s_8\", \"s_4\", \"s_3\", \"s_2\", \"s_1\", \"s_5\", \"s_9\", \"es_5\"]], [[\"es_4\", \"s_8\", \"s_12\", \"s_11\", \"s_10\", \"s_9\", \"es_5\"]]]},\n\t{pcp: 7, name: \"avb-59\", packetFilter: \"*-avb-59-*\", source: \"es_4\", destination: \"es_6\", trees: [[[\"es_4\", \"s_8\", \"s_7\", \"s_11\", \"s_12\", \"es_6\"]], [[\"es_4\", \"s_8\", \"s_12\", \"es_6\"]]]}]"
config *.gateScheduleConfigurator.typename r438Configurator
config *.gateScheduleConfigurator.gateCycleDuration 2000us

vector 0 partial_mesh.es_1.ethg$o[0].channel busy:vector ETV
attr interpolationmode sample-hold
attr recordingmode vector
attr source channelBusy
vector 1 partial_mesh.s_1.ethg$o[0].channel busy:vector ETV
attr interpolationmode sample-hold
attr recordingmode vector
attr source channelBusy
vector 2 partial_mesh.s_1.ethg$o[1].channel busy:vector ETV
attr interpolationmode sample-hold
attr recordingmode vector
attr source channelBusy
vector 3 partial_mesh.s_2.ethg$o[0].channel busy:vector ETV
attr interpolationmode sample-hold
attr recordingmode vector
attr source channelBusy
vector 4 partial_mesh.s_2.ethg$o[1].channel busy:vector ETV
attr interpolationmode sample-hold
attr recordingmode vector
attr source channelBusy
vector 5 partial_mesh.s_3.ethg$o[0].channel busy:vector ETV
attr interpolationmode sample-hold
attr recordingmode vector
attr source channelBusy
vector 6 partial_mesh.s_3.ethg$o[1].channel busy:vector ETV
attr interpolationmode sample-hold
attr recordingmode vector
attr source channelBusy
vector 7 partial_mesh.s_4.ethg$o[0].channel busy:vector ETV
attr interpolationmode sample-hold
attr recordingmode vector
attr source channelBusy
vector 8 partial_mesh.s_4.ethg$o[1].channel busy:vector ETV
attr interpolationmode sample-hold
attr recordingmode vector
attr source channelBusy
vector 9 partial_mesh.es_2.ethg$o[0].channel busy:vector ETV
attr interpolationmode sample-hold
attr recordingmode vector
attr source channelBusy
vector 10 partial_mesh.es_3.ethg$o[0].channel busy:vector ETV
attr interpolationmode sample-hold
attr recordingmode vector
attr source channelBusy
vector 11 partial_mesh.s_5.ethg$o[0].channel busy:vector ETV
attr interpolationmode sample-hold
attr recordingmode vector
attr source channelBusy
vector 12 partial_mesh.s_5.ethg$o[1].channel busy:vector ETV
attr interpolationmode sample-hold
attr recordingmode vector
attr source channelBusy
vector 13 partial_mesh.s_6.ethg$o[0].channel busy:vector ETV
attr interpolationmode sample-hold
attr recordingmode vector
attr source channelBusy
vector 14 partial_mesh.s_6.ethg$o[1].channel busy:vector ETV
attr interpolationmode sample-hold
attr recordingmode vector
attr source channelBusy
vector 15 partial_mesh.s_7.ethg$o[0].channel busy:vector ETV
attr interpolationmode sample-hold
attr recordingmode vector
attr source channelBusy
vector 16 partial_mesh.s_7.ethg$o[1].channel busy:vector ETV
attr interpolationmode sample-hold
attr recordingmode vector
attr source channelBusy
vector 17 partial_mesh.s_8.ethg$o[0].channel busy:vector ETV
attr interpolationmode sample-hold
attr recordingmode vector
attr source channelBusy
vector 18 partial_mesh.s_8.ethg$o[1].channel busy:vector ETV
attr interpolationmode sample-hold
attr recordingmode vector
attr source channelBusy
vector 19 partial_mesh.es_4.ethg$o[0].channel busy:vector ETV
attr interpolationmode sample-hold
attr recordingmode vector
attr source channelBusy
vector 20 partial_mesh.es_5.ethg$o[0].channel busy:vector ETV
attr interpolationmode sample-hold
attr recordingmode vector
attr source channelBusy
vector 21 partial_mesh.s_9.ethg$o[0].channel busy:vector ETV
attr interpolationmode sample-hold
attr recordingmode vector
attr source channelBusy
vector 22 partial_mesh.s_9.ethg$o[1].channel busy:vector ETV
attr interpolationmode sample-hold
attr recordingmode vector
attr source channelBusy
vector 23 partial_mesh.s_10.ethg$o[0].channel busy:vector ETV
attr interpolationmode sample-hold
attr recordingmode vector
attr source channelBusy
vector 24 partial_mesh.s_10.ethg$o[1].channel busy:vector ETV
attr interpolationmode sample-hold
attr recordingmode vector
attr source channelBusy
vector 25 partial_mesh.s_11.ethg$o[0].channel busy:vector ETV
attr interpolationmode sample-hold
attr recordingmode vector
attr source channelBusy
vector 26 partial_mesh.s_11.ethg$o[1].channel busy:vector ETV
attr interpolationmode sample-hold
attr recordingmode vector
attr source channelBusy
vector 27 partial_mesh.s_12.ethg$o[0].channel busy:vector ETV
attr interpolationmode sample-hold
attr recordingmode vector
attr source channelBusy
vector 28 partial_mesh.s_12.ethg$o[1].channel busy:vector ETV
attr interpolationmode sample-hold
attr recordingmode vector
attr source channelBusy
vector 29 partial_mesh.es_6.ethg$o[0].channel busy:vector ETV
attr interpolationmode sample-hold
attr recordingmode vector
attr source channelBusy
vector 30 partial_mesh.s_1.ethg$o[2].channel busy:vector ETV
attr interpolationmode sample-hold
attr recordingmode vector
attr source channelBusy
vector 31 partial_mesh.s_5.ethg$o[2].channel busy:vector ETV
attr interpolationmode sample-hold
attr recordingmode vector
attr source channelBusy
vector 32 partial_mesh.s_5.ethg$o[3].channel busy:vector ETV
attr interpolationmode sample-hold
attr recordingmode vector
attr source channelBusy
vector 33 partial_mesh.s_9.ethg$o[2].channel busy:vector ETV
attr interpolationmode sample-hold
attr recordingmode vector
attr source channelBusy
vector 34 partial_mesh.s_2.ethg$o[2].channel busy:vector ETV
attr interpolationmode sample-hold
attr recordingmode vector
attr source channelBusy
vector 35 partial_mesh.s_6.ethg$o[2].channel busy:vector ETV
attr interpolationmode sample-hold
attr recordingmode vector
attr source channelBusy
vector 36 partial_mesh.s_6.ethg$o[3].channel busy:vector ETV
attr interpolationmode sample-hold
attr recordingmode vector
attr source channelBusy
vector 37 partial_mesh.s_10.ethg$o[2].channel busy:vector ETV
attr interpolationmode sample-hold
attr recordingmode vector
attr source channelBusy
vector 38 partial_mesh.s_3.ethg$o[2].channel busy:vector ETV
attr interpolationmode sample-hold
attr recordingmode vector
attr source channelBusy
vector 39 partial_mesh.s_7.ethg$o[2].channel busy:vector ETV
attr interpolationmode sample-hold
attr recordingmode vector
attr source channelBusy
vector 40 partial_mesh.s_7.ethg$o[3].channel busy:vector ETV
attr interpolationmode sample-hold
attr recordingmode vector
attr source channelBusy
vector 41 partial_mesh.s_11.ethg$o[2].channel busy:vector ETV
attr interpolationmode sample-hold
attr recordingmode vector
attr source channelBusy
vector 42 partial_mesh.s_4.ethg$o[2].channel busy:vector ETV
attr interpolationmode sample-hold
attr recordingmode vector
attr source channelBusy
vector 43 partial_mesh.s_8.ethg$o[2].channel busy:vector ETV
attr interpolationmode sample-hold
attr recordingmode vector
attr source channelBusy
vector 44 partial_mesh.s_8.ethg$o[3].channel busy:vector ETV
attr interpolationmode sample-hold
attr recordingmode vector
attr source channelBusy
vector 45 partial_mesh.s_12.ethg$o[2].channel busy:vector ETV
attr interpolationmode sample-hold
attr recordingmode vector
attr source channelBusy
vector 46 partial_mesh.es_1.eth[0].phyLayer.transmitter transmitting:vector ETV
attr interpolationmode sample-hold
attr recordingmode vector
attr source "count(transmissionStarted) - count(transmissionEnded)"
attr title "transmitting state"
attr type int
vector 47 partial_mesh.es_1.udp passedUpPk:vector(count) ETV
attr interpolationmode none
attr recordingmode vector(count)
attr source packetSentToUpper
attr title "packets passed up, count"
vector 48 partial_mesh.es_1.udp droppedPkWrongPort:vector(count) ETV
attr interpolationmode none
attr recordingmode vector(count)
attr source packetDropReasonIsNoPortFound(packetDropped)
attr title "packets dropped (wrong port), count"
vector 49 partial_mesh.es_1.udp droppedPkBadChecksum:vector(count) ETV
attr interpolationmode none
attr recordingmode vector(count)
attr source packetDropReasonIsIncorrectlyReceived(packetDropped)
attr title "packets dropped (checksum error), count"
vector 50 partial_mesh.es_2.eth[0].phyLayer.transmitter transmitting:vector ETV
attr interpolationmode sample-hold
attr recordingmode vector
attr source "count(transmissionStarted) - count(transmissionEnded)"
attr title "transmitting state"
attr type int
vector 51 partial_mesh.es_2.udp passedUpPk:vector(count) ETV
attr interpolationmode none
attr recordingmode vector(count)
attr source packetSentToUpper
attr title "packets passed up, count"
vector 52 partial_mesh.es_2.udp droppedPkWrongPort:vector(count) ETV
attr interpolationmode none
attr recordingmode vector(count)
attr source packetDropReasonIsNoPortFound(packetDropped)
attr title "packets dropped (wrong port), count"
vector 53 partial_mesh.es_2.udp droppedPkBadChecksum:vector(count) ETV
attr interpolationmode none
attr recordingmode vector(count)
attr source packetDropReasonIsIncorrectlyReceived(packetDropped)
attr title "packets dropped (checksum error), count"
vector 54 partial_mesh.es_3.eth[0].phyLayer.transmitter transmitting:vector ETV
attr interpolationmode sample-hold
attr recordingmode vector
attr source "count(transmissionStarted) - count(transmissionEnded)"
attr title "transmitting state"
attr type int
vector 55 partial_mesh.es_3.udp passedUpPk:vector(count) ETV
attr interpolationmode none
attr recordingmode vector(count)
attr source packetSentToUpper
attr title "packets passed up, count"
vector 56 partial_mesh.es_3.udp droppedPkWrongPort:vector(count) ETV
attr interpolationmode none
attr recordingmode vector(count)
attr source packetDropReasonIsNoPortFound(packetDropped)
attr title "packets dropped (wrong port), count"
vector 57 partial_mesh.es_3.udp droppedPkBadChecksum:vector(count) ETV
attr interpolationmode none
attr recordingmode vector(count)
attr source packetDropReasonIsIncorrectlyReceived(packetDropped)
attr title "packets dropped (checksum error), count"
vector 58 partial_mesh.es_4.eth[0].phyLayer.transmitter transmitting:vector ETV
attr interpolationmode sample-hold
attr recordingmode vector
attr source "count(transmissionStarted) - count(transmissionEnded)"
attr title "transmitting state"
attr type int
vector 59 partial_mesh.es_4.udp passedUpPk:vector(count) ETV
attr interpolationmode none
attr recordingmode vector(count)
attr source packetSentToUpper
attr title "packets passed up, count"
vector 60 partial_mesh.es_4.udp droppedPkWrongPort:vector(count) ETV
attr interpolationmode none
attr recordingmode vector(count)
attr source packetDropReasonIsNoPortFound(packetDropped)
attr title "packets dropped (wrong port), count"
vector 61 partial_mesh.es_4.udp droppedPkBadChecksum:vector(count) ETV
attr interpolationmode none
attr recordingmode vector(count)
attr source packetDropReasonIsIncorrectlyReceived(packetDropped)
attr title "packets dropped (checksum error), count"
vector 62 partial_mesh.es_5.eth[0].phyLayer.transmitter transmitting:vector ETV
attr interpolationmode sample-hold
attr recordingmode vector
attr source "count(transmissionStarted) - count(transmissionEnded)"
attr title "transmitting state"
attr type int
vector 63 partial_mesh.es_5.udp passedUpPk:vector(count) ETV
attr interpolationmode none
attr recordingmode vector(count)
attr source packetSentToUpper
attr title "packets passed up, count"
vector 64 partial_mesh.es_5.udp droppedPkWrongPort:vector(count) ETV
attr interpolationmode none
attr recordingmode vector(count)
attr source packetDropReasonIsNoPortFound(packetDropped)
attr title "packets dropped (wrong port), count"
vector 65 partial_mesh.es_5.udp droppedPkBadChecksum:vector(count) ETV
attr interpolationmode none
attr recordingmode vector(count)
attr source packetDropReasonIsIncorrectlyReceived(packetDropped)
attr title "packets dropped (checksum error), count"
vector 66 partial_mesh.es_6.eth[0].phyLayer.transmitter transmitting:vector ETV
attr interpolationmode sample-hold
attr recordingmode vector
attr source "count(transmissionStarted) - count(transmissionEnded)"
attr title "transmitting state"
attr type int
vector 67 partial_mesh.es_6.udp passedUpPk:vector(count) ETV
attr interpolationmode none
attr recordingmode vector(count)
attr source packetSentToUpper
attr title "packets passed up, count"
vector 68 partial_mesh.es_6.udp droppedPkWrongPort:vector(count) ETV
attr interpolationmode none
attr recordingmode vector(count)
attr source packetDropReasonIsNoPortFound(packetDropped)
attr title "packets dropped (wrong port), count"
vector 69 partial_mesh.es_6.udp droppedPkBadChecksum:vector(count) ETV
attr interpolationmode none
attr recordingmode vector(count)
attr source packetDropReasonIsIncorrectlyReceived(packetDropped)
attr title "packets dropped (checksum error), count"
vector 70 partial_mesh.s_1.eth[0].phyLayer.transmitter transmitting:vector ETV
attr interpolationmode sample-hold
attr recordingmode vector
attr source "count(transmissionStarted) - count(transmissionEnded)"
attr title "transmitting state"
attr type int
vector 71 partial_mesh.s_1.eth[1].phyLayer.transmitter transmitting:vector ETV
attr interpolationmode sample-hold
attr recordingmode vector
attr source "count(transmissionStarted) - count(transmissionEnded)"
attr title "transmitting state"
attr type int
vector 72 partial_mesh.s_1.eth[2].phyLayer.transmitter transmitting:vector ETV
attr interpolationmode sample-hold
attr recordingmode vector
attr source "count(transmissionStarted) - count(transmissionEnded)"
attr title "transmitting state"
attr type int
vector 73 partial_mesh.s_2.eth[0].phyLayer.transmitter transmitting:vector ETV
attr interpolationmode sample-hold
attr recordingmode vector
attr source "count(transmissionStarted) - count(transmissionEnded)"
attr title "transmitting state"
attr type int
vector 74 partial_mesh.s_2.eth[1].phyLayer.transmitter transmitting:vector ETV
attr interpolationmode sample-hold
attr recordingmode vector
attr source "count(transmissionStarted) - count(transmissionEnded)"
attr title "transmitting state"
attr type int
vector 75 partial_mesh.s_2.eth[2].phyLayer.transmitter transmitting:vector ETV
attr interpolationmode sample-hold
attr recordingmode vector
attr source "count(transmissionStarted) - count(transmissionEnded)"
attr title "transmitting state"
attr type int
vector 76 partial_mesh.s_3.eth[0].phyLayer.transmitter transmitting:vector ETV
attr interpolationmode sample-hold
attr recordingmode vector
attr source "count(transmissionStarted) - count(transmissionEnded)"
attr title "transmitting state"
attr type int
vector 77 partial_mesh.s_3.eth[1].phyLayer.transmitter transmitting:vector ETV
attr interpolationmode sample-hold
attr recordingmode vector
attr source "count(transmissionStarted) - count(transmissionEnded)"
attr title "transmitting state"
attr type int
vector 78 partial_mesh.s_3.eth[2].phyLayer.transmitter transmitting:vector ETV
attr interpolationmode sample-hold
attr recordingmode vector
attr source "count(transmissionStarted) - count(transmissionEnded)"
attr title "transmitting state"
attr type int
vector 79 partial_mesh.s_4.eth[0].phyLayer.transmitter transmitting:vector ETV
attr interpolationmode sample-hold
attr recordingmode vector
attr source "count(transmissionStarted) - count(transmissionEnded)"
attr title "transmitting state"
attr type int
vector 80 partial_mesh.s_4.eth[1].phyLayer.transmitter transmitting:vector ETV
attr interpolationmode sample-hold
attr recordingmode vector
attr source "count(transmissionStarted) - count(transmissionEnded)"
attr title "transmitting state"
attr type int
vector 81 partial_mesh.s_4.eth[2].phyLayer.transmitter transmitting:vector ETV
attr interpolationmode sample-hold
attr recordingmode vector
attr source "count(transmissionStarted) - count(transmissionEnded)"
attr title "transmitting state"
attr type int
vector 82 partial_mesh.s_5.eth[0].phyLayer.transmitter transmitting:vector ETV
attr interpolationmode sample-hold
attr recordingmode vector
attr source "count(transmissionStarted) - count(transmissionEnded)"
attr title "transmitting state"
attr type int
vector 83 partial_mesh.s_5.eth[1].phyLayer.transmitter transmitting:vector ETV
attr interpolationmode sample-hold
attr recordingmode vector
attr source "count(transmissionStarted) - count(transmissionEnded)"
attr title "transmitting state"
attr type int
vector 84 partial_mesh.s_5.eth[2].phyLayer.transmitter transmitting:vector ETV
attr interpolationmode sample-hold
attr recordingmode vector
attr source "count(transmissionStarted) - count(transmissionEnded)"
attr title "transmitting state"
attr type int
vector 85 partial_mesh.s_5.eth[3].phyLayer.transmitter transmitting:vector ETV
attr interpolationmode sample-hold
attr recordingmode vector
attr source "count(transmissionStarted) - count(transmissionEnded)"
attr title "transmitting state"
attr type int
vector 86 partial_mesh.s_6.eth[0].phyLayer.transmitter transmitting:vector ETV
attr interpolationmode sample-hold
attr recordingmode vector
attr source "count(transmissionStarted) - count(transmissionEnded)"
attr title "transmitting state"
attr type int
vector 87 partial_mesh.s_6.eth[1].phyLayer.transmitter transmitting:vector ETV
attr interpolationmode sample-hold
attr recordingmode vector
attr source "count(transmissionStarted) - count(transmissionEnded)"
attr title "transmitting state"
attr type int
vector 88 partial_mesh.s_6.eth[2].phyLayer.transmitter transmitting:vector ETV
attr interpolationmode sample-hold
attr recordingmode vector
attr source "count(transmissionStarted) - count(transmissionEnded)"
attr title "transmitting state"
attr type int
vector 89 partial_mesh.s_6.eth[3].phyLayer.transmitter transmitting:vector ETV
attr interpolationmode sample-hold
attr recordingmode vector
attr source "count(transmissionStarted) - count(transmissionEnded)"
attr title "transmitting state"
attr type int
vector 90 partial_mesh.s_7.eth[0].phyLayer.transmitter transmitting:vector ETV
attr interpolationmode sample-hold
attr recordingmode vector
attr source "count(transmissionStarted) - count(transmissionEnded)"
attr title "transmitting state"
attr type int
vector 91 partial_mesh.s_7.eth[1].phyLayer.transmitter transmitting:vector ETV
attr interpolationmode sample-hold
attr recordingmode vector
attr source "count(transmissionStarted) - count(transmissionEnded)"
attr title "transmitting state"
attr type int
vector 92 partial_mesh.s_7.eth[2].phyLayer.transmitter transmitting:vector ETV
attr interpolationmode sample-hold
attr recordingmode vector
attr source "count(transmissionStarted) - count(transmissionEnded)"
attr title "transmitting state"
attr type int
vector 93 partial_mesh.s_7.eth[3].phyLayer.transmitter transmitting:vector ETV
attr interpolationmode sample-hold
attr recordingmode vector
attr source "count(transmissionStarted) - count(transmissionEnded)"
attr title "transmitting state"
attr type int
vector 94 partial_mesh.s_8.eth[0].phyLayer.transmitter transmitting:vector ETV
attr interpolationmode sample-hold
attr recordingmode vector
attr source "count(transmissionStarted) - count(transmissionEnded)"
attr title "transmitting state"
attr type int
vector 95 partial_mesh.s_8.eth[1].phyLayer.transmitter transmitting:vector ETV
attr interpolationmode sample-hold
attr recordingmode vector
attr source "count(transmissionStarted) - count(transmissionEnded)"
attr title "transmitting state"
attr type int
vector 96 partial_mesh.s_8.eth[2].phyLayer.transmitter transmitting:vector ETV
attr interpolationmode sample-hold
attr recordingmode vector
attr source "count(transmissionStarted) - count(transmissionEnded)"
attr title "transmitting state"
attr type int
vector 97 partial_mesh.s_8.eth[3].phyLayer.transmitter transmitting:vector ETV
attr interpolationmode sample-hold
attr recordingmode vector
attr source "count(transmissionStarted) - count(transmissionEnded)"
attr title "transmitting state"
attr type int
vector 98 partial_mesh.s_9.eth[0].phyLayer.transmitter transmitting:vector ETV
attr interpolationmode sample-hold
attr recordingmode vector
attr source "count(transmissionStarted) - count(transmissionEnded)"
attr title "transmitting state"
attr type int
vector 99 partial_mesh.s_9.eth[1].phyLayer.transmitter transmitting:vector ETV
attr interpolationmode sample-hold
attr recordingmode vector
attr source "count(transmissionStarted) - count(transmissionEnded)"
attr title "transmitting state"
attr type int
vector 100 partial_mesh.s_9.eth[2].phyLayer.transmitter transmitting:vector ETV
attr interpolationmode sample-hold
attr recordingmode vector
attr source "count(transmissionStarted) - count(transmissionEnded)"
attr title "transmitting state"
attr type int
vector 101 partial_mesh.s_10.eth[0].phyLayer.transmitter transmitting:vector ETV
attr interpolationmode sample-hold
attr recordingmode vector
attr source "count(transmissionStarted) - count(transmissionEnded)"
attr title "transmitting state"
attr type int
vector 102 partial_mesh.s_10.eth[1].phyLayer.transmitter transmitting:vector ETV
attr interpolationmode sample-hold
attr recordingmode vector
attr source "count(transmissionStarted) - count(transmissionEnded)"
attr title "transmitting state"
attr type int
vector 103 partial_mesh.s_10.eth[2].phyLayer.transmitter transmitting:vector ETV
attr interpolationmode sample-hold
attr recordingmode vector
attr source "count(transmissionStarted) - count(transmissionEnded)"
attr title "transmitting state"
attr type int
vector 104 partial_mesh.s_11.eth[0].phyLayer.transmitter transmitting:vector ETV
attr interpolationmode sample-hold
attr recordingmode vector
attr source "count(transmissionStarted) - count(transmissionEnded)"
attr title "transmitting state"
attr type int
vector 105 partial_mesh.s_11.eth[1].phyLayer.transmitter transmitting:vector ETV
attr interpolationmode sample-hold
attr recordingmode vector
attr source "count(transmissionStarted) - count(transmissionEnded)"
attr title "transmitting state"
attr type int
vector 106 partial_mesh.s_11.eth[2].phyLayer.transmitter transmitting:vector ETV
attr interpolationmode sample-hold
attr recordingmode vector
attr source "count(transmissionStarted) - count(transmissionEnded)"
attr title "transmitting state"
attr type int
vector 107 partial_mesh.s_12.eth[0].phyLayer.transmitter transmitting:vector ETV
attr interpolationmode sample-hold
attr recordingmode vector
attr source "count(transmissionStarted) - count(transmissionEnded)"
attr title "transmitting state"
attr type int
vector 108 partial_mesh.s_12.eth[1].phyLayer.transmitter transmitting:vector ETV
attr interpolationmode sample-hold
attr recordingmode vector
attr source "count(transmissionStarted) - count(transmissionEnded)"
attr title "transmitting state"
attr type int
vector 109 partial_mesh.s_12.eth[2].phyLayer.transmitter transmitting:vector ETV
attr interpolationmode sample-hold
attr recordingmode vector
attr source "count(transmissionStarted) - count(transmissionEnded)"
attr title "transmitting state"
attr type int
vector 110 partial_mesh.es_1.app[0].source packetLengths:vector ETV
attr interpolationmode none
attr moduledisplaypath partial_mesh.es_1.tsn-4.source
attr recordingmode vector
attr source packetLength(packetPushed)
attr title "packet lengths"
attr unit b
vector 111 partial_mesh.es_1.app[13].source packetLengths:vector ETV
attr interpolationmode none
attr moduledisplaypath partial_mesh.es_1.avb-48.source
attr recordingmode vector
attr source packetLength(packetPushed)
attr title "packet lengths"
attr unit b
vector 112 partial_mesh.es_1.app[15].source packetLengths:vector ETV
attr interpolationmode none
attr moduledisplaypath partial_mesh.es_1.avb-53.source
attr recordingmode vector
attr source packetLength(packetPushed)
attr title "packet lengths"
attr unit b
vector 113 partial_mesh.es_2.app[4].source packetLengths:vector ETV
attr interpolationmode none
attr moduledisplaypath partial_mesh.es_2.tsn-11.source
attr recordingmode vector
attr source packetLength(packetPushed)
attr title "packet lengths"
attr unit b
vector 114 partial_mesh.es_2.app[14].source packetLengths:vector ETV
attr interpolationmode none
attr moduledisplaypath partial_mesh.es_2.avb-42.source
attr recordingmode vector
attr source packetLength(packetPushed)
attr title "packet lengths"
attr unit b
vector 115 partial_mesh.es_2.app[17].source packetLengths:vector ETV
attr interpolationmode none
attr moduledisplaypath partial_mesh.es_2.avb-50.source
attr recordingmode vector
attr source packetLength(packetPushed)
attr title "packet lengths"
attr unit b
vector 116 partial_mesh.es_3.app[16].source packetLengths:vector ETV
attr interpolationmode none
attr moduledisplaypath partial_mesh.es_3.tsn-35.source
attr recordingmode vector
attr source packetLength(packetPushed)
attr title "packet lengths"
attr unit b
vector 117 partial_mesh.es_3.app[18].source packetLengths:vector ETV
attr interpolationmode none
attr moduledisplaypath partial_mesh.es_3.avb-43.source
attr recordingmode vector
attr source packetLength(packetPushed)
attr title "packet lengths"
attr unit b
vector 118 partial_mesh.es_3.app[19].source packetLengths:vector ETV
attr interpolationmode none
attr moduledisplaypath partial_mesh.es_3.avb-49.source
attr recordingmode vector
attr source packetLength(packetPushed)
[...]
4954	6142945 25 13942 13942 0.001 0.001 1 5360000 5360000 5360000 28729600000000
4955	6142970 25 13942 13942 0.001 0.001 1 5360000 5360000 5360000 28729600000000
4956	6142995 25 13942 13942 0.001 0.001 1 5328000 5328000 5328000 28387584000000
4957	6143020 25 13942 13942 0.001 0.001 1 5328000 5328000 5328000 28387584000000
4958	6143045 19 13942 13942 0.001 0.001 1 0 0 0 0
4959	6143064 19 13942 13942 0.001 0.001 1 0 0 0 0
4960	6143083 19 13942 13942 0.001 0.001 1 0 0 0 0
4961	6143102 19 13942 13942 0.001 0.001 1 0 0 0 0
4962	6143121 19 13942 13942 0.001 0.001 1 0 0 0 0
4963	6143140 19 13942 13942 0.001 0.001 1 0 0 0 0
4964	6143159 19 13942 13942 0.001 0.001 1 0 0 0 0
4965	6143178 19 13942 13942 0.001 0.001 1 0 0 0 0
4966	6143197 19 13942 13942 0.001 0.001 1 0 0 0 0
4967	6143216 19 13942 13942 0.001 0.001 1 0 0 0 0
4968	6143235 27 13942 13942 0.001 0.001 1 216064000 216064000 216064000 4.6683652096e+16
4969	6143262 27 13942 13942 0.001 0.001 1 216064000 216064000 216064000 4.6683652096e+16
4970	6143289 27 13942 13942 0.001 0.001 1 226752000 226752000 226752000 5.1416469504e+16
4971	6143316 27 13942 13942 0.001 0.001 1 226752000 226752000 226752000 5.1416469504e+16
4972	6143343 27 13942 13942 0.001 0.001 1 226752000 226752000 226752000 5.1416469504e+16
4973	6143370 19 13942 13942 0.001 0.001 1 0 0 0 0
4974	6143389 27 13942 13942 0.001 0.001 1 228992000 228992000 228992000 5.2437336064e+16
4975	6143416 19 13942 13942 0.001 0.001 1 0 0 0 0
4976	6143435 27 13942 13942 0.001 0.001 1 246592000 246592000 246592000 6.0807614464e+16
4977	6143462 27 13942 13942 0.001 0.001 1 355008000 355008000 355008000 1.26030680064e+17
4978	6143489 26 13942 13942 0.001 0.001 1 22480000 22480000 22480000 5.053504e+14
4979	6143515 26 13942 13942 0.001 0.001 1 23488000 23488000 23488000 5.51686144e+14
4980	6143541 24 13942 13942 0.001 0.001 1 768000 768000 768000 589824000000
4981	6143565 24 13942 13942 0.001 0.001 1 768000 768000 768000 589824000000
4982	6143589 19 13942 13942 0.001 0.001 1 0 0 0 0
4983	6143608 19 13942 13942 0.001 0.001 1 0 0 0 0
4984	6143627 19 13942 13942 0.001 0.001 1 0 0 0 0
4985	6143646 19 13942 13942 0.001 0.001 1 0 0 0 0
4986	6143665 19 13942 13942 0.001 0.001 1 0 0 0 0
4987	6143684 19 13942 13942 0.001 0.001 1 0 0 0 0
4988	6143703 19 13942 13942 0.001 0.001 1 0 0 0 0
4989	6143722 19 13942 13942 0.001 0.001 1 0 0 0 0
4990	6143741 19 13942 13942 0.001 0.001 1 0 0 0 0
4991	6143760 19 13942 13942 0.001 0.001 1 0 0 0 0
4992	6143779 27 13942 13942 0.001 0.001 1 330752000 330752000 330752000 1.09396885504e+17
4993	6143806 27 13942 13942 0.001 0.001 1 330752000 330752000 330752000 1.09396885504e+17
4994	6143833 27 13942 13942 0.001 0.001 1 354000000 354000000 354000000 1.25316e+17
4995	6143860 27 13942 13942 0.001 0.001 1 354000000 354000000 354000000 1.25316e+17
4996	6143887 27 13942 13942 0.001 0.001 1 354000000 354000000 354000000 1.25316e+17
4997	6143914 19 13942 13942 0.001 0.001 1 0 0 0 0
4998	6143933 27 13942 13942 0.001 0.001 1 357712000 357712000 357712000 1.27957874944e+17
4999	6143960 19 13942 13942 0.001 0.001 1 0 0 0 0
5000	6143979 27 13942 13942 0.001 0.001 1 342096000 342096000 342096000 1.17029673216e+17
5001	6144006 27 13942 13942 0.001 0.001 1 355856000 355856000 355856000 1.26633492736e+17
5002	6144033 26 13942 13942 0.001 0.001 1 21712000 21712000 21712000 4.71410944e+14
5003	6144059 26 13942 13942 0.001 0.001 1 22640000 22640000 22640000 5.125696e+14
5004	6144085 25 13942 13942 0.001 0.001 1 2464000 2464000 2464000 6071296000000
5005	6144110 25 13942 13942 0.001 0.001 1 2464000 2464000 2464000 6071296000000
5006	6144135 19 13942 13942 0.001 0.001 1 0 0 0 0
5007	6144154 19 13942 13942 0.001 0.001 1 0 0 0 0
5008	6144173 19 13942 13942 0.001 0.001 1 0 0 0 0
5009	6144192 19 13942 13942 0.001 0.001 1 0 0 0 0
5010	6144211 19 13942 13942 0.001 0.001 1 0 0 0 0
5011	6144230 19 13942 13942 0.001 0.001 1 0 0 0 0
5012	6144249 19 13942 13942 0.001 0.001 1 0 0 0 0
5013	6144268 19 13942 13942 0.001 0.001 1 0 0 0 0
5014	6144287 19 13942 13942 0.001 0.001 1 0 0 0 0
5015	6144306 19 13942 13942 0.001 0.001 1 0 0 0 0
5016	6144325 27 13942 13942 0.001 0.001 1 330752000 330752000 330752000 1.09396885504e+17
5017	6144352 27 13942 13942 0.001 0.001 1 330752000 330752000 330752000 1.09396885504e+17
5018	6144379 27 13942 13942 0.001 0.001 1 354928000 354928000 354928000 1.25973885184e+17
5019	6144406 27 13942 13942 0.001 0.001 1 354928000 354928000 354928000 1.25973885184e+17
5020	6144433 27 13942 13942 0.001 0.001 1 354928000 354928000 354928000 1.25973885184e+17
5021	6144460 19 13942 13942 0.001 0.001 1 0 0 0 0
5022	6144479 27 13942 13942 0.001 0.001 1 358704000 358704000 358704000 1.28668559616e+17
5023	6144506 19 13942 13942 0.001 0.001 1 0 0 0 0
5024	6144525 27 13942 13942 0.001 0.001 1 330784000 330784000 330784000 1.09418054656e+17
5025	6144552 19 13942 13942 0.001 0.001 1 0 0 0 0
5026	6144571 19 13942 13942 0.001 0.001 1 0 0 0 0
5027	6144590 19 13942 13942 0.001 0.001 1 0 0 0 0
5028	6144609 19 13942 13942 0.001 0.001 1 0 0 0 0
5029	6144628 19 13942 13942 0.001 0.001 1 0 0 0 0
5030	6144647 27 13942 13942 0.001 0.001 1 340272000 340272000 340272000 1.15785033984e+17
5031	6144674 26 13942 13942 0.001 0.001 1 19680000 19680000 19680000 3.873024e+14
5032	6144700 26 13942 13942 0.001 0.001 1 21696000 21696000 21696000 4.70716416e+14
5033	6144726 25 13942 13942 0.001 0.001 1 7024000 7024000 7024000 49336576000000
5034	6144751 25 13942 13942 0.001 0.001 1 7024000 7024000 7024000 49336576000000
5035	6144776 19 13942 13942 0.001 0.001 1 0 0 0 0
5036	6144795 19 13942 13942 0.001 0.001 1 0 0 0 0
5037	6144814 19 13942 13942 0.001 0.001 1 0 0 0 0
5038	6144833 19 13942 13942 0.001 0.001 1 0 0 0 0
5039	6144852 19 13942 13942 0.001 0.001 1 0 0 0 0
5040	6144871 19 13942 13942 0.001 0.001 1 0 0 0 0
5041	6144890 19 13942 13942 0.001 0.001 1 0 0 0 0
5042	6144909 19 13942 13942 0.001 0.001 1 0 0 0 0
5043	6144928 19 13942 13942 0.001 0.001 1 0 0 0 0
5044	6144947 19 13942 13942 0.001 0.001 1 0 0 0 0
5045	6144966 27 13942 13942 0.001 0.001 1 311552000 311552000 311552000 9.7064648704e+16
5046	6144993 27 13942 13942 0.001 0.001 1 311552000 311552000 311552000 9.7064648704e+16
5047	6145020 27 13942 13942 0.001 0.001 1 338256000 338256000 338256000 1.14417121536e+17
5048	6145047 27 13942 13942 0.001 0.001 1 338256000 338256000 338256000 1.14417121536e+17
5049	6145074 27 13942 13942 0.001 0.001 1 338256000 338256000 338256000 1.14417121536e+17
5050	6145101 19 13942 13942 0.001 0.001 1 0 0 0 0
5051	6145120 27 13942 13942 0.001 0.001 1 342096000 342096000 342096000 1.17029673216e+17
5052	6145147 19 13942 13942 0.001 0.001 1 0 0 0 0
5053	6145166 27 13942 13942 0.001 0.001 1 357712000 357712000 357712000 1.27957874944e+17
5054	6145193 27 13942 13942 0.001 0.001 1 259296000 259296000 259296000 6.7234415616e+16
5055	6145220 26 13942 13942 0.001 0.001 1 16864000 16864000 16864000 2.84394496e+14
5056	6145246 26 13942 13942 0.001 0.001 1 16864000 16864000 16864000 2.84394496e+14
5057	6145272 24 13942 13942 0.001 0.001 1 768000 768000 768000 589824000000
5058	6145296 24 13942 13942 0.001 0.001 1 768000 768000 768000 589824000000
5059	6145320 19 13942 13942 0.001 0.001 1 0 0 0 0
5060	6145339 19 13942 13942 0.001 0.001 1 0 0 0 0
5061	6145358 19 13942 13942 0.001 0.001 1 0 0 0 0
5062	6145377 19 13942 13942 0.001 0.001 1 0 0 0 0
5063	6145396 19 13942 13942 0.001 0.001 1 0 0 0 0
5064	6145415 19 13942 13942 0.001 0.001 1 0 0 0 0
5065	6145434 19 13942 13942 0.001 0.001 1 0 0 0 0
5066	6145453 19 13942 13942 0.001 0.001 1 0 0 0 0
5067	6145472 19 13942 13942 0.001 0.001 1 0 0 0 0
5068	6145491 19 13942 13942 0.001 0.001 1 0 0 0 0
5069	6145510 27 13942 13942 0.001 0.001 1 241664000 241664000 241664000 5.8401488896e+16
5070	6145537 27 13942 13942 0.001 0.001 1 241664000 241664000 241664000 5.8401488896e+16
5071	6145564 27 13942 13942 0.001 0.001 1 259296000 259296000 259296000 6.7234415616e+16
5072	6145591 27 13942 13942 0.001 0.001 1 259296000 259296000 259296000 6.7234415616e+16
5073	6145618 27 13942 13942 0.001 0.001 1 259296000 259296000 259296000 6.7234415616e+16
5074	6145645 19 13942 13942 0.001 0.001 1 0 0 0 0
5075	6145664 27 13942 13942 0.001 0.001 1 262048000 262048000 262048000 6.8669154304e+16
5076	6145691 19 13942 13942 0.001 0.001 1 0 0 0 0
5077	6145710 27 13942 13942 0.001 0.001 1 470752000 470752000 470752000 2.21607445504e+17
5078	6145737 27 13942 13942 0.001 0.001 1 234480000 234480000 234480000 5.49808704e+16
5079	6145764 25 13942 13942 0.001 0.001 1 3920000 3920000 3920000 15366400000000
5080	6145789 25 13942 13942 0.001 0.001 1 5616000 5616000 5616000 31539456000000
5081	6145814 19 13942 13942 0.001 0.001 1 0 0 0 0
5082	6145833 19 13942 13942 0.001 0.001 1 0 0 0 0
5083	6145852 19 13942 13942 0.001 0.001 1 0 0 0 0
5084	6145871 19 13942 13942 0.001 0.001 1 0 0 0 0
5085	6145890 19 13942 13942 0.001 0.001 1 0 0 0 0
5086	6145909 19 13942 13942 0.001 0.001 1 0 0 0 0
5087	6145928 19 13942 13942 0.001 0.001 1 0 0 0 0
5088	6145947 19 13942 13942 0.001 0.001 1 0 0 0 0
5089	6145966 19 13942 13942 0.001 0.001 1 0 0 0 0
5090	6145985 19 13942 13942 0.001 0.001 1 0 0 0 0
5091	6146004 19 13942 13942 0.001 0.001 1 0 0 0 0
5092	6146023 19 13942 13942 0.001 0.001 1 0 0 0 0
5093	6146042 27 13942 13942 0.001 0.001 1 228864000 228864000 228864000 5.2378730496e+16
5094	6146069 27 13942 13942 0.001 0.001 1 228864000 228864000 228864000 5.2378730496e+16
5095	6146096 27 13942 13942 0.001 0.001 1 232784000 232784000 232784000 5.4188390656e+16
5096	6146123 27 13942 13942 0.001 0.001 1 232784000 232784000 232784000 5.4188390656e+16
5097	6146150 27 13942 13942 0.001 0.001 1 232784000 232784000 232784000 5.4188390656e+16
5098	6146177 19 13942 13942 0.001 0.001 1 0 0 0 0
5099	6146196 27 13942 13942 0.001 0.001 1 234640000 234640000 234640000 5.50559296e+16
5100	6146223 19 13942 13942 0.001 0.001 1 0 0 0 0
5101	6146242 26 13942 13942 0.001 0.001 1 14288000 14288000 14288000 2.04146944e+14
5102	6146268 19 13942 13942 0.001 0.001 1 0 0 0 0
5103	6146287 19 13942 13942 0.001 0.001 1 0 0 0 0
5104	6146306 19 13942 13942 0.001 0.001 1 0 0 0 0
5105	6146325 19 13942 13942 0.001 0.001 1 0 0 0 0
5106	6146344 19 13942 13942 0.001 0.001 1 0 0 0 0
5107	6146363 27 13942 13942 0.001 0.001 1 468432000 468432000 468432000 2.19428538624e+17
5108	6146390 26 13942 13942 0.001 0.001 1 13632000 13632000 13632000 1.85831424e+14
5109	6146416 26 13942 13942 0.001 0.001 1 14560000 14560000 14560000 2.119936e+14
5110	6146442 25 13942 13942 0.001 0.001 1 1696000 1696000 1696000 2876416000000
5111	6146467 25 13942 13942 0.001 0.001 1 2544000 2544000 2544000 6471936000000
5112	6146492 19 13942 13942 0.001 0.001 1 0 0 0 0
5113	6146511 19 13942 13942 0.001 0.001 1 0 0 0 0
5114	6146530 19 13942 13942 0.001 0.001 1 0 0 0 0
5115	6146549 19 13942 13942 0.001 0.001 1 0 0 0 0
5116	6146568 19 13942 13942 0.001 0.001 1 0 0 0 0
5117	6146587 19 13942 13942 0.001 0.001 1 0 0 0 0
5118	6146606 19 13942 13942 0.001 0.001 1 0 0 0 0
5119	6146625 19 13942 13942 0.001 0.001 1 0 0 0 0
5120	6146644 19 13942 13942 0.001 0.001 1 0 0 0 0
5121	6146663 19 13942 13942 0.001 0.001 1 0 0 0 0
5122	6146682 27 13942 13942 0.001 0.001 1 451328000 451328000 451328000 2.03696963584e+17
5123	6146709 27 13942 13942 0.001 0.001 1 451328000 451328000 451328000 2.03696963584e+17
5124	6146736 27 13942 13942 0.001 0.001 1 466656000 466656000 466656000 2.17767822336e+17
5125	6146763 27 13942 13942 0.001 0.001 1 466656000 466656000 466656000 2.17767822336e+17
5126	6146790 27 13942 13942 0.001 0.001 1 466656000 466656000 466656000 2.17767822336e+17
5127	6146817 19 13942 13942 0.001 0.001 1 0 0 0 0
5128	6146836 27 13942 13942 0.001 0.001 1 470752000 470752000 470752000 2.21607445504e+17
5129	6146863 19 13942 13942 0.001 0.001 1 0 0 0 0
5130	6146882 27 13942 13942 0.001 0.001 1 262048000 262048000 262048000 6.8669154304e+16
5131	6146909 27 13942 13942 0.001 0.001 1 475184000 475184000 475184000 2.25799833856e+17
5132	6146936 25 13942 13942 0.001 0.001 1 9360000 9360000 9360000 87609600000000
5133	6146961 26 13942 13942 0.001 0.001 1 11056000 11056000 11056000 1.22235136e+14
5134	6146987 19 13942 13942 0.001 0.001 1 0 0 0 0
5135	6147006 19 13942 13942 0.001 0.001 1 0 0 0 0
5136	6147025 19 13942 13942 0.001 0.001 1 0 0 0 0
5137	6147044 19 13942 13942 0.001 0.001 1 0 0 0 0
5138	6147063 19 13942 13942 0.001 0.001 1 0 0 0 0
5139	6147082 19 13942 13942 0.001 0.001 1 0 0 0 0
5140	6147101 19 13942 13942 0.001 0.001 1 0 0 0 0
5141	6147120 19 13942 13942 0.001 0.001 1 0 0 0 0
5142	6147139 19 13942 13942 0.001 0.001 1 0 0 0 0
5143	6147158 19 13942 13942 0.001 0.001 1 0 0 0 0
5144	6147177 19 13942 13942 0.001 0.001 1 0 0 0 0
5145	6147196 19 13942 13942 0.001 0.001 1 0 0 0 0
5146	6147215 27 13942 13942 0.001 0.001 1 464128000 464128000 464128000 2.15414800384e+17
5147	6147242 27 13942 13942 0.001 0.001 1 464128000 464128000 464128000 2.15414800384e+17
5148	6147269 27 13942 13942 0.001 0.001 1 473488000 473488000 473488000 2.24190886144e+17
5149	6147296 27 13942 13942 0.001 0.001 1 473488000 473488000 473488000 2.24190886144e+17
5150	6147323 27 13942 13942 0.001 0.001 1 473488000 473488000 473488000 2.24190886144e+17
5151	6147350 19 13942 13942 0.001 0.001 1 0 0 0 0
5152	6147369 27 13942 13942 0.001 0.001 1 477200000 477200000 477200000 2.2771984e+17
5153	6147396 19 13942 13942 0.001 0.001 1 0 0 0 0
5154	6147415 27 13942 13942 0.001 0.001 1 500992000 500992000 500992000 2.50992984064e+17
5155	6147442 26 13942 13942 0.001 0.001 1 35872000 35872000 35872000 1.286800384e+15
5156	6147468 26 13942 13942 0.001 0.001 1 27984000 27984000 27984000 7.83104256e+14
5157	6147494 26 13942 13942 0.001 0.001 1 29600000 29600000 29600000 8.7616e+14
5158	6147520 25 13942 13942 0.001 0.001 1 6272000 6272000 6272000 39337984000000
5159	6147545 25 13942 13942 0.001 0.001 1 6272000 6272000 6272000 39337984000000
5160	6147570 19 13942 13942 0.001 0.001 1 0 0 0 0
5161	6147589 19 13942 13942 0.001 0.001 1 0 0 0 0
5162	6147608 19 13942 13942 0.001 0.001 1 0 0 0 0
5163	6147627 19 13942 13942 0.001 0.001 1 0 0 0 0
5164	6147646 19 13942 13942 0.001 0.001 1 0 0 0 0
5165	6147665 19 13942 13942 0.001 0.001 1 0 0 0 0
5166	6147684 19 13942 13942 0.001 0.001 1 0 0 0 0
5167	6147703 19 13942 13942 0.001 0.001 1 0 0 0 0
5168	6147722 19 13942 13942 0.001 0.001 1 0 0 0 0
5169	6147741 19 13942 13942 0.001 0.001 1 0 0 0 0
5170	6147760 19 13942 13942 0.001 0.001 1 0 0 0 0
5171	6147779 19 13942 13942 0.001 0.001 1 0 0 0 0
5172	6147798 26 13942 13942 0.001 0.001 1 34256000 34256000 34256000 1.173473536e+15
5173	6147824 26 13942 13942 0.001 0.001 1 34256000 34256000 34256000 1.173473536e+15
5174	6147850 26 13942 13942 0.001 0.001 1 34256000 34256000 34256000 1.173473536e+15
5175	6147876 19 13942 13942 0.001 0.001 1 0 0 0 0
5176	6147895 26 13942 13942 0.001 0.001 1 36944000 36944000 36944000 1.364859136e+15
5177	6147921 19 13942 13942 0.001 0.001 1 0 0 0 0
5178	6147940 27 13942 13942 0.001 0.001 1 227328000 227328000 227328000 5.1678019584e+16
5179	6147967 27 13942 13942 0.001 0.001 1 390992000 390992000 390992000 1.52874744064e+17
5180	6147994 19 13942 13942 0.001 0.001 1 0 0 0 0
5181	6148013 19 13942 13942 0.001 0.001 1 0 0 0 0
5182	6148032 19 13942 13942 0.001 0.001 1 0 0 0 0
5183	6148051 19 13942 13942 0.001 0.001 1 0 0 0 0
5184	6148070 26 13942 13942 0.001 0.001 1 35280000 35280000 35280000 1.2446784e+15
5185	6148096 26 13942 13942 0.001 0.001 1 37056000 37056000 37056000 1.373147136e+15
5186	6148122 25 13942 13942 0.001 0.001 1 8048000 8048000 8048000 64770304000000
5187	6148147 25 13942 13942 0.001 0.001 1 9424000 9424000 9424000 88811776000000
5188	6148172 19 13942 13942 0.001 0.001 1 0 0 0 0
5189	6148191 19 13942 13942 0.001 0.001 1 0 0 0 0
5190	6148210 19 13942 13942 0.001 0.001 1 0 0 0 0
5191	6148229 19 13942 13942 0.001 0.001 1 0 0 0 0
5192	6148248 19 13942 13942 0.001 0.001 1 0 0 0 0
5193	6148267 19 13942 13942 0.001 0.001 1 0 0 0 0
5194	6148286 19 13942 13942 0.001 0.001 1 0 0 0 0
5195	6148305 19 13942 13942 0.001 0.001 1 0 0 0 0
5196	6148324 19 13942 13942 0.001 0.001 1 0 0 0 0
5197	6148343 19 13942 13942 0.001 0.001 1 0 0 0 0
5198	6148362 27 13942 13942 0.001 0.001 1 451328000 451328000 451328000 2.03696963584e+17
5199	6148389 27 13942 13942 0.001 0.001 1 451328000 451328000 451328000 2.03696963584e+17
5200	6148416 27 13942 13942 0.001 0.001 1 494656000 494656000 494656000 2.44684558336e+17
5201	6148443 27 13942 13942 0.001 0.001 1 494656000 494656000 494656000 2.44684558336e+17
5202	6148470 27 13942 13942 0.001 0.001 1 494656000 494656000 494656000 2.44684558336e+17
5203	6148497 19 13942 13942 0.001 0.001 1 0 0 0 0
5204	6148516 27 13942 13942 0.001 0.001 1 500992000 500992000 500992000 2.50992984064e+17
5205	6148543 19 13942 13942 0.001 0.001 1 0 0 0 0
5206	6148562 27 13942 13942 0.001 0.001 1 477200000 477200000 477200000 2.2771984e+17
5207	6148589 27 13942 13942 0.001 0.001 1 402512000 402512000 402512000 1.62015910144e+17
5208	6148616 25 13942 13942 0.001 0.001 1 8272000 8272000 8272000 68425984000000
5209	6148641 25 13942 13942 0.001 0.001 1 8272000 8272000 8272000 68425984000000
5210	6148666 19 13942 13942 0.001 0.001 1 0 0 0 0
5211	6148685 19 13942 13942 0.001 0.001 1 0 0 0 0
5212	6148704 19 13942 13942 0.001 0.001 1 0 0 0 0
5213	6148723 19 13942 13942 0.001 0.001 1 0 0 0 0
5214	6148742 19 13942 13942 0.001 0.001 1 0 0 0 0
5215	6148761 19 13942 13942 0.001 0.001 1 0 0 0 0
5216	6148780 19 13942 13942 0.001 0.001 1 0 0 0 0
5217	6148799 19 13942 13942 0.001 0.001 1 0 0 0 0
5218	6148818 19 13942 13942 0.001 0.001 1 0 0 0 0
5219	6148837 19 13942 13942 0.001 0.001 1 0 0 0 0
5220	6148856 19 13942 13942 0.001 0.001 1 0 0 0 0
5221	6148875 19 13942 13942 0.001 0.001 1 0 0 0 0
5222	6148894 27 13942 13942 0.001 0.001 1 394240000 394240000 394240000 1.554251776e+17
5223	6148921 27 13942 13942 0.001 0.001 1 394240000 394240000 394240000 1.554251776e+17
5224	6148948 27 13942 13942 0.001 0.001 1 402512000 402512000 402512000 1.62015910144e+17
5225	6148975 27 13942 13942 0.001 0.001 1 402512000 402512000 402512000 1.62015910144e+17
5226	6149002 27 13942 13942 0.001 0.001 1 402512000 402512000 402512000 1.62015910144e+17
5227	6149029 19 13942 13942 0.001 0.001 1 0 0 0 0
5228	6149048 27 13942 13942 0.001 0.001 1 405648000 405648000 405648000 1.64550299904e+17
5229	6149075 19 13942 13942 0.001 0.001 1 0 0 0 0
5230	6149094 27 13942 13942 0.001 0.001 1 344896000 344896000 344896000 1.18953250816e+17
5231	6149121 27 13942 13942 0.001 0.001 1 411840000 411840000 411840000 1.696121856e+17
5232	6149148 26 13942 13942 0.001 0.001 1 28224000 28224000 28224000 7.96594176e+14
5233	6149174 26 13942 13942 0.001 0.001 1 28224000 28224000 28224000 7.96594176e+14
5234	6149200 25 13942 13942 0.001 0.001 1 8576000 8576000 8576000 73547776000000
5235	6149225 25 13942 13942 0.001 0.001 1 8576000 8576000 8576000 73547776000000
5236	6149250 19 13942 13942 0.001 0.001 1 0 0 0 0
5237	6149269 19 13942 13942 0.001 0.001 1 0 0 0 0
5238	6149288 19 13942 13942 0.001 0.001 1 0 0 0 0
5239	6149307 19 13942 13942 0.001 0.001 1 0 0 0 0
5240	6149326 19 13942 13942 0.001 0.001 1 0 0 0 0
5241	6149345 19 13942 13942 0.001 0.001 1 0 0 0 0
5242	6149364 19 13942 13942 0.001 0.001 1 0 0 0 0
5243	6149383 19 13942 13942 0.001 0.001 1 0 0 0 0
5244	6149402 19 13942 13942 0.001 0.001 1 0 0 0 0
5245	6149421 19 13942 13942 0.001 0.001 1 0 0 0 0
5246	6149440 27 13942 13942 0.001 0.001 1 375040000 375040000 375040000 1.406550016e+17
5247	6149467 27 13942 13942 0.001 0.001 1 375040000 375040000 375040000 1.406550016e+17
5248	6149494 27 13942 13942 0.001 0.001 1 411840000 411840000 411840000 1.696121856e+17
5249	6149521 27 13942 13942 0.001 0.001 1 411840000 411840000 411840000 1.696121856e+17
5250	6149548 27 13942 13942 0.001 0.001 1 411840000 411840000 411840000 1.696121856e+17
5251	6149575 19 13942 13942 0.001 0.001 1 0 0 0 0
5252	6149594 27 13942 13942 0.001 0.001 1 417280000 417280000 417280000 1.741225984e+17
5253	6149621 19 13942 13942 0.001 0.001 1 0 0 0 0
5254	6149640 27 13942 13942 0.001 0.001 1 565152000 565152000 565152000 3.19396783104e+17

