file 6293582 1661009130                                         
version 3
run General-0-20220820-23:25:23-5387
attr configname General
attr datetime 20220820-23:25:23
attr datetimef 20220820-232523
attr experiment General
attr inifile auto-generated.ini
attr iterationvars ""
attr iterationvarsd ""
attr iterationvarsf ""
attr measurement ""
attr network partial_mesh
attr processid 5387
attr repetition 0
attr replication #0
attr resultdir results
attr runnumber 0
attr seedset 0
config image-path ../../inet/images
config network partial_mesh
config sim-time-limit 1ms
config record-eventlog false
config **.result-recording-modes all
config *.*.eth[*].bitrate 1Gbps
config **.visualizer.interfaceTableVisualizer.displayInterfaceTables true
config partial_mesh.es_1.numApps 18
config partial_mesh.es_1.hasOutgoingStreams true
config partial_mesh.es_1.hasIncomingStreams true
config partial_mesh.es_2.numApps 20
config partial_mesh.es_2.hasOutgoingStreams true
config partial_mesh.es_2.hasIncomingStreams true
config partial_mesh.es_3.numApps 21
config partial_mesh.es_3.hasOutgoingStreams true
config partial_mesh.es_3.hasIncomingStreams true
config partial_mesh.es_4.numApps 21
config partial_mesh.es_4.hasOutgoingStreams true
config partial_mesh.es_4.hasIncomingStreams true
config partial_mesh.es_5.numApps 17
config partial_mesh.es_5.hasOutgoingStreams true
config partial_mesh.es_5.hasIncomingStreams true
config partial_mesh.es_6.numApps 23
config partial_mesh.es_6.hasOutgoingStreams true
config partial_mesh.es_6.hasIncomingStreams true
config partial_mesh.es_*.hasEgressTrafficShaping true
config partial_mesh.s_*.hasIncomingStreams true
config partial_mesh.s_*.hasOutgoingStreams true
config partial_mesh.s_*.hasEgressTrafficShaping true
config partial_mesh.es_6.app[0].typename UdpSourceApp
config partial_mesh.es_6.app[0].display-name tsn-0
config partial_mesh.es_6.app[0].io.destAddress "\"es_2\""
config partial_mesh.es_6.app[0].io.destPort 5000
config partial_mesh.es_6.app[0].source.packetNameFormat "\"%M-%m-%c\""
config partial_mesh.es_6.app[0].source.packetLength 40B
config partial_mesh.es_6.app[0].source.productionInterval 100us
config partial_mesh.es_6.app[0].source.initialProductionOffset 0us
config partial_mesh.es_2.app[0].typename UdpSinkApp
config partial_mesh.es_2.app[0].display-name tsn-0
config partial_mesh.es_2.app[0].io.localPort 5000
config partial_mesh.es_5.app[0].typename UdpSourceApp
config partial_mesh.es_5.app[0].display-name tsn-1
config partial_mesh.es_5.app[0].io.destAddress "\"es_6\""
config partial_mesh.es_5.app[0].io.destPort 5001
config partial_mesh.es_5.app[0].source.packetNameFormat "\"%M-%m-%c\""
config partial_mesh.es_5.app[0].source.packetLength 50B
config partial_mesh.es_5.app[0].source.productionInterval 2000us
config partial_mesh.es_5.app[0].source.initialProductionOffset 4us
config partial_mesh.es_6.app[1].typename UdpSinkApp
config partial_mesh.es_6.app[1].display-name tsn-1
config partial_mesh.es_6.app[1].io.localPort 5001
config partial_mesh.es_4.app[0].typename UdpSourceApp
config partial_mesh.es_4.app[0].display-name tsn-2
config partial_mesh.es_4.app[0].io.destAddress "\"es_3\""
config partial_mesh.es_4.app[0].io.destPort 5002
config partial_mesh.es_4.app[0].source.packetNameFormat "\"%M-%m-%c\""
config partial_mesh.es_4.app[0].source.packetLength 50B
config partial_mesh.es_4.app[0].source.productionInterval 1000us
config partial_mesh.es_4.app[0].source.initialProductionOffset 7us
config partial_mesh.es_3.app[0].typename UdpSinkApp
config partial_mesh.es_3.app[0].display-name tsn-2
config partial_mesh.es_3.app[0].io.localPort 5002
config partial_mesh.es_4.app[1].typename UdpSourceApp
config partial_mesh.es_4.app[1].display-name tsn-3
config partial_mesh.es_4.app[1].io.destAddress "\"es_3\""
config partial_mesh.es_4.app[1].io.destPort 5003
config partial_mesh.es_4.app[1].source.packetNameFormat "\"%M-%m-%c\""
config partial_mesh.es_4.app[1].source.packetLength 50B
config partial_mesh.es_4.app[1].source.productionInterval 200us
config partial_mesh.es_4.app[1].source.initialProductionOffset 0us
config partial_mesh.es_3.app[1].typename UdpSinkApp
config partial_mesh.es_3.app[1].display-name tsn-3
config partial_mesh.es_3.app[1].io.localPort 5003
config partial_mesh.es_1.app[0].typename UdpSourceApp
config partial_mesh.es_1.app[0].display-name tsn-4
config partial_mesh.es_1.app[0].io.destAddress "\"es_4\""
config partial_mesh.es_1.app[0].io.destPort 5004
config partial_mesh.es_1.app[0].source.packetNameFormat "\"%M-%m-%c\""
config partial_mesh.es_1.app[0].source.packetLength 80B
config partial_mesh.es_1.app[0].source.productionInterval 200us
config partial_mesh.es_1.app[0].source.initialProductionOffset 0us
config partial_mesh.es_4.app[2].typename UdpSinkApp
config partial_mesh.es_4.app[2].display-name tsn-4
config partial_mesh.es_4.app[2].io.localPort 5004
config partial_mesh.es_3.app[2].typename UdpSourceApp
config partial_mesh.es_3.app[2].display-name tsn-5
config partial_mesh.es_3.app[2].io.destAddress "\"es_6\""
config partial_mesh.es_3.app[2].io.destPort 5005
config partial_mesh.es_3.app[2].source.packetNameFormat "\"%M-%m-%c\""
config partial_mesh.es_3.app[2].source.packetLength 70B
config partial_mesh.es_3.app[2].source.productionInterval 400us
config partial_mesh.es_3.app[2].source.initialProductionOffset 1us
config partial_mesh.es_6.app[2].typename UdpSinkApp
config partial_mesh.es_6.app[2].display-name tsn-5
config partial_mesh.es_6.app[2].io.localPort 5005
config partial_mesh.es_1.app[1].typename UdpSourceApp
config partial_mesh.es_1.app[1].display-name tsn-6
config partial_mesh.es_1.app[1].io.destAddress "\"es_3\""
config partial_mesh.es_1.app[1].io.destPort 5006
config partial_mesh.es_1.app[1].source.packetNameFormat "\"%M-%m-%c\""
config partial_mesh.es_1.app[1].source.packetLength 40B
config partial_mesh.es_1.app[1].source.productionInterval 200us
config partial_mesh.es_1.app[1].source.initialProductionOffset 2us
config partial_mesh.es_3.app[3].typename UdpSinkApp
config partial_mesh.es_3.app[3].display-name tsn-6
config partial_mesh.es_3.app[3].io.localPort 5006
config partial_mesh.es_3.app[4].typename UdpSourceApp
config partial_mesh.es_3.app[4].display-name tsn-7
config partial_mesh.es_3.app[4].io.destAddress "\"es_2\""
config partial_mesh.es_3.app[4].io.destPort 5007
config partial_mesh.es_3.app[4].source.packetNameFormat "\"%M-%m-%c\""
config partial_mesh.es_3.app[4].source.packetLength 50B
config partial_mesh.es_3.app[4].source.productionInterval 500us
config partial_mesh.es_3.app[4].source.initialProductionOffset 7us
config partial_mesh.es_2.app[1].typename UdpSinkApp
config partial_mesh.es_2.app[1].display-name tsn-7
config partial_mesh.es_2.app[1].io.localPort 5007
config partial_mesh.es_2.app[2].typename UdpSourceApp
config partial_mesh.es_2.app[2].display-name tsn-8
config partial_mesh.es_2.app[2].io.destAddress "\"es_5\""
config partial_mesh.es_2.app[2].io.destPort 5008
config partial_mesh.es_2.app[2].source.packetNameFormat "\"%M-%m-%c\""
config partial_mesh.es_2.app[2].source.packetLength 90B
config partial_mesh.es_2.app[2].source.productionInterval 500us
config partial_mesh.es_2.app[2].source.initialProductionOffset 4us
config partial_mesh.es_5.app[1].typename UdpSinkApp
config partial_mesh.es_5.app[1].display-name tsn-8
config partial_mesh.es_5.app[1].io.localPort 5008
config partial_mesh.es_3.app[5].typename UdpSourceApp
config partial_mesh.es_3.app[5].display-name tsn-9
config partial_mesh.es_3.app[5].io.destAddress "\"es_6\""
config partial_mesh.es_3.app[5].io.destPort 5009
config partial_mesh.es_3.app[5].source.packetNameFormat "\"%M-%m-%c\""
config partial_mesh.es_3.app[5].source.packetLength 90B
config partial_mesh.es_3.app[5].source.productionInterval 1000us
config partial_mesh.es_3.app[5].source.initialProductionOffset 8us
config partial_mesh.es_6.app[3].typename UdpSinkApp
config partial_mesh.es_6.app[3].display-name tsn-9
config partial_mesh.es_6.app[3].io.localPort 5009
config partial_mesh.es_4.app[3].typename UdpSourceApp
config partial_mesh.es_4.app[3].display-name tsn-10
config partial_mesh.es_4.app[3].io.destAddress "\"es_2\""
config partial_mesh.es_4.app[3].io.destPort 5010
config partial_mesh.es_4.app[3].source.packetNameFormat "\"%M-%m-%c\""
config partial_mesh.es_4.app[3].source.packetLength 30B
config partial_mesh.es_4.app[3].source.productionInterval 200us
config partial_mesh.es_4.app[3].source.initialProductionOffset 1us
config partial_mesh.es_2.app[3].typename UdpSinkApp
config partial_mesh.es_2.app[3].display-name tsn-10
config partial_mesh.es_2.app[3].io.localPort 5010
config partial_mesh.es_2.app[4].typename UdpSourceApp
config partial_mesh.es_2.app[4].display-name tsn-11
config partial_mesh.es_2.app[4].io.destAddress "\"es_1\""
config partial_mesh.es_2.app[4].io.destPort 5011
config partial_mesh.es_2.app[4].source.packetNameFormat "\"%M-%m-%c\""
config partial_mesh.es_2.app[4].source.packetLength 60B
config partial_mesh.es_2.app[4].source.productionInterval 100us
config partial_mesh.es_2.app[4].source.initialProductionOffset 0us
config partial_mesh.es_1.app[2].typename UdpSinkApp
config partial_mesh.es_1.app[2].display-name tsn-11
config partial_mesh.es_1.app[2].io.localPort 5011
config partial_mesh.es_6.app[4].typename UdpSourceApp
config partial_mesh.es_6.app[4].display-name tsn-12
config partial_mesh.es_6.app[4].io.destAddress "\"es_4\""
config partial_mesh.es_6.app[4].io.destPort 5012
config partial_mesh.es_6.app[4].source.packetNameFormat "\"%M-%m-%c\""
config partial_mesh.es_6.app[4].source.packetLength 50B
config partial_mesh.es_6.app[4].source.productionInterval 200us
config partial_mesh.es_6.app[4].source.initialProductionOffset 3us
config partial_mesh.es_4.app[4].typename UdpSinkApp
config partial_mesh.es_4.app[4].display-name tsn-12
config partial_mesh.es_4.app[4].io.localPort 5012
config partial_mesh.es_2.app[5].typename UdpSourceApp
config partial_mesh.es_2.app[5].display-name tsn-13
config partial_mesh.es_2.app[5].io.destAddress "\"es_1\""
config partial_mesh.es_2.app[5].io.destPort 5013
config partial_mesh.es_2.app[5].source.packetNameFormat "\"%M-%m-%c\""
config partial_mesh.es_2.app[5].source.packetLength 60B
config partial_mesh.es_2.app[5].source.productionInterval 500us
config partial_mesh.es_2.app[5].source.initialProductionOffset 6us
config partial_mesh.es_1.app[3].typename UdpSinkApp
config partial_mesh.es_1.app[3].display-name tsn-13
config partial_mesh.es_1.app[3].io.localPort 5013
config partial_mesh.es_3.app[6].typename UdpSourceApp
config partial_mesh.es_3.app[6].display-name tsn-14
config partial_mesh.es_3.app[6].io.destAddress "\"es_2\""
config partial_mesh.es_3.app[6].io.destPort 5014
config partial_mesh.es_3.app[6].source.packetNameFormat "\"%M-%m-%c\""
config partial_mesh.es_3.app[6].source.packetLength 100B
config partial_mesh.es_3.app[6].source.productionInterval 400us
config partial_mesh.es_3.app[6].source.initialProductionOffset 3us
config partial_mesh.es_2.app[6].typename UdpSinkApp
config partial_mesh.es_2.app[6].display-name tsn-14
config partial_mesh.es_2.app[6].io.localPort 5014
config partial_mesh.es_3.app[7].typename UdpSourceApp
config partial_mesh.es_3.app[7].display-name tsn-15
config partial_mesh.es_3.app[7].io.destAddress "\"es_5\""
config partial_mesh.es_3.app[7].io.destPort 5015
config partial_mesh.es_3.app[7].source.packetNameFormat "\"%M-%m-%c\""
config partial_mesh.es_3.app[7].source.packetLength 80B
config partial_mesh.es_3.app[7].source.productionInterval 400us
config partial_mesh.es_3.app[7].source.initialProductionOffset 5us
config partial_mesh.es_5.app[2].typename UdpSinkApp
config partial_mesh.es_5.app[2].display-name tsn-15
config partial_mesh.es_5.app[2].io.localPort 5015
config partial_mesh.es_6.app[5].typename UdpSourceApp
config partial_mesh.es_6.app[5].display-name tsn-16
config partial_mesh.es_6.app[5].io.destAddress "\"es_2\""
config partial_mesh.es_6.app[5].io.destPort 5016
config partial_mesh.es_6.app[5].source.packetNameFormat "\"%M-%m-%c\""
config partial_mesh.es_6.app[5].source.packetLength 30B
config partial_mesh.es_6.app[5].source.productionInterval 100us
config partial_mesh.es_6.app[5].source.initialProductionOffset 1us
config partial_mesh.es_2.app[7].typename UdpSinkApp
config partial_mesh.es_2.app[7].display-name tsn-16
config partial_mesh.es_2.app[7].io.localPort 5016
config partial_mesh.es_1.app[4].typename UdpSourceApp
config partial_mesh.es_1.app[4].display-name tsn-17
config partial_mesh.es_1.app[4].io.destAddress "\"es_3\""
config partial_mesh.es_1.app[4].io.destPort 5017
config partial_mesh.es_1.app[4].source.packetNameFormat "\"%M-%m-%c\""
config partial_mesh.es_1.app[4].source.packetLength 50B
config partial_mesh.es_1.app[4].source.productionInterval 400us
config partial_mesh.es_1.app[4].source.initialProductionOffset 5us
config partial_mesh.es_3.app[8].typename UdpSinkApp
config partial_mesh.es_3.app[8].display-name tsn-17
config partial_mesh.es_3.app[8].io.localPort 5017
config partial_mesh.es_3.app[9].typename UdpSourceApp
config partial_mesh.es_3.app[9].display-name tsn-18
config partial_mesh.es_3.app[9].io.destAddress "\"es_4\""
config partial_mesh.es_3.app[9].io.destPort 5018
config partial_mesh.es_3.app[9].source.packetNameFormat "\"%M-%m-%c\""
config partial_mesh.es_3.app[9].source.packetLength 60B
config partial_mesh.es_3.app[9].source.productionInterval 1000us
config partial_mesh.es_3.app[9].source.initialProductionOffset 10us
config partial_mesh.es_4.app[5].typename UdpSinkApp
config partial_mesh.es_4.app[5].display-name tsn-18
config partial_mesh.es_4.app[5].io.localPort 5018
config partial_mesh.es_1.app[5].typename UdpSourceApp
config partial_mesh.es_1.app[5].display-name tsn-19
config partial_mesh.es_1.app[5].io.destAddress "\"es_5\""
config partial_mesh.es_1.app[5].io.destPort 5019
config partial_mesh.es_1.app[5].source.packetNameFormat "\"%M-%m-%c\""
config partial_mesh.es_1.app[5].source.packetLength 30B
config partial_mesh.es_1.app[5].source.productionInterval 500us
config partial_mesh.es_1.app[5].source.initialProductionOffset 6us
config partial_mesh.es_5.app[3].typename UdpSinkApp
config partial_mesh.es_5.app[3].display-name tsn-19
config partial_mesh.es_5.app[3].io.localPort 5019
config partial_mesh.es_6.app[6].typename UdpSourceApp
config partial_mesh.es_6.app[6].display-name tsn-20
config partial_mesh.es_6.app[6].io.destAddress "\"es_5\""
config partial_mesh.es_6.app[6].io.destPort 5020
config partial_mesh.es_6.app[6].source.packetNameFormat "\"%M-%m-%c\""
config partial_mesh.es_6.app[6].source.packetLength 70B
config partial_mesh.es_6.app[6].source.productionInterval 2000us
config partial_mesh.es_6.app[6].source.initialProductionOffset 8us
config partial_mesh.es_5.app[4].typename UdpSinkApp
config partial_mesh.es_5.app[4].display-name tsn-20
config partial_mesh.es_5.app[4].io.localPort 5020
config partial_mesh.es_1.app[6].typename UdpSourceApp
config partial_mesh.es_1.app[6].display-name tsn-21
config partial_mesh.es_1.app[6].io.destAddress "\"es_6\""
config partial_mesh.es_1.app[6].io.destPort 5021
config partial_mesh.es_1.app[6].source.packetNameFormat "\"%M-%m-%c\""
config partial_mesh.es_1.app[6].source.packetLength 90B
config partial_mesh.es_1.app[6].source.productionInterval 1000us
config partial_mesh.es_1.app[6].source.initialProductionOffset 7us
config partial_mesh.es_6.app[7].typename UdpSinkApp
config partial_mesh.es_6.app[7].display-name tsn-21
config partial_mesh.es_6.app[7].io.localPort 5021
config partial_mesh.es_5.app[5].typename UdpSourceApp
config partial_mesh.es_5.app[5].display-name tsn-22
config partial_mesh.es_5.app[5].io.destAddress "\"es_3\""
config partial_mesh.es_5.app[5].io.destPort 5022
config partial_mesh.es_5.app[5].source.packetNameFormat "\"%M-%m-%c\""
config partial_mesh.es_5.app[5].source.packetLength 30B
config partial_mesh.es_5.app[5].source.productionInterval 500us
config partial_mesh.es_5.app[5].source.initialProductionOffset 2us
config partial_mesh.es_3.app[10].typename UdpSinkApp
config partial_mesh.es_3.app[10].display-name tsn-22
config partial_mesh.es_3.app[10].io.localPort 5022
config partial_mesh.es_2.app[8].typename UdpSourceApp
config partial_mesh.es_2.app[8].display-name tsn-23
config partial_mesh.es_2.app[8].io.destAddress "\"es_4\""
config partial_mesh.es_2.app[8].io.destPort 5023
config partial_mesh.es_2.app[8].source.packetNameFormat "\"%M-%m-%c\""
config partial_mesh.es_2.app[8].source.packetLength 30B
config partial_mesh.es_2.app[8].source.productionInterval 400us
config partial_mesh.es_2.app[8].source.initialProductionOffset 3us
config partial_mesh.es_4.app[6].typename UdpSinkApp
config partial_mesh.es_4.app[6].display-name tsn-23
config partial_mesh.es_4.app[6].io.localPort 5023
config partial_mesh.es_6.app[8].typename UdpSourceApp
config partial_mesh.es_6.app[8].display-name tsn-24
config partial_mesh.es_6.app[8].io.destAddress "\"es_3\""
config partial_mesh.es_6.app[8].io.destPort 5024
config partial_mesh.es_6.app[8].source.packetNameFormat "\"%M-%m-%c\""
config partial_mesh.es_6.app[8].source.packetLength 50B
config partial_mesh.es_6.app[8].source.productionInterval 500us
config partial_mesh.es_6.app[8].source.initialProductionOffset 6us
config partial_mesh.es_3.app[11].typename UdpSinkApp
config partial_mesh.es_3.app[11].display-name tsn-24
config partial_mesh.es_3.app[11].io.localPort 5024
config partial_mesh.es_4.app[7].typename UdpSourceApp
config partial_mesh.es_4.app[7].display-name tsn-25
config partial_mesh.es_4.app[7].io.destAddress "\"es_3\""
config partial_mesh.es_4.app[7].io.destPort 5025
config partial_mesh.es_4.app[7].source.packetNameFormat "\"%M-%m-%c\""
config partial_mesh.es_4.app[7].source.packetLength 70B
config partial_mesh.es_4.app[7].source.productionInterval 400us
config partial_mesh.es_4.app[7].source.initialProductionOffset 5us
config partial_mesh.es_3.app[12].typename UdpSinkApp
config partial_mesh.es_3.app[12].display-name tsn-25
config partial_mesh.es_3.app[12].io.localPort 5025
config partial_mesh.es_2.app[9].typename UdpSourceApp
config partial_mesh.es_2.app[9].display-name tsn-26
config partial_mesh.es_2.app[9].io.destAddress "\"es_3\""
config partial_mesh.es_2.app[9].io.destPort 5026
config partial_mesh.es_2.app[9].source.packetNameFormat "\"%M-%m-%c\""
config partial_mesh.es_2.app[9].source.packetLength 70B
config partial_mesh.es_2.app[9].source.productionInterval 200us
config partial_mesh.es_2.app[9].source.initialProductionOffset 1us
config partial_mesh.es_3.app[13].typename UdpSinkApp
config partial_mesh.es_3.app[13].display-name tsn-26
config partial_mesh.es_3.app[13].io.localPort 5026
config partial_mesh.es_4.app[8].typename UdpSourceApp
config partial_mesh.es_4.app[8].display-name tsn-27
config partial_mesh.es_4.app[8].io.destAddress "\"es_6\""
config partial_mesh.es_4.app[8].io.destPort 5027
config partial_mesh.es_4.app[8].source.packetNameFormat "\"%M-%m-%c\""
config partial_mesh.es_4.app[8].source.packetLength 40B
config partial_mesh.es_4.app[8].source.productionInterval 200us
config partial_mesh.es_4.app[8].source.initialProductionOffset 2us
config partial_mesh.es_6.app[9].typename UdpSinkApp
config partial_mesh.es_6.app[9].display-name tsn-27
config partial_mesh.es_6.app[9].io.localPort 5027
config partial_mesh.es_1.app[7].typename UdpSourceApp
config partial_mesh.es_1.app[7].display-name tsn-28
config partial_mesh.es_1.app[7].io.destAddress "\"es_2\""
config partial_mesh.es_1.app[7].io.destPort 5028
config partial_mesh.es_1.app[7].source.packetNameFormat "\"%M-%m-%c\""
config partial_mesh.es_1.app[7].source.packetLength 100B
config partial_mesh.es_1.app[7].source.productionInterval 2000us
config partial_mesh.es_1.app[7].source.initialProductionOffset 9us
config partial_mesh.es_2.app[10].typename UdpSinkApp
config partial_mesh.es_2.app[10].display-name tsn-28
config partial_mesh.es_2.app[10].io.localPort 5028
config partial_mesh.es_1.app[8].typename UdpSourceApp
config partial_mesh.es_1.app[8].display-name tsn-29
config partial_mesh.es_1.app[8].io.destAddress "\"es_3\""
config partial_mesh.es_1.app[8].io.destPort 5029
config partial_mesh.es_1.app[8].source.packetNameFormat "\"%M-%m-%c\""
config partial_mesh.es_1.app[8].source.packetLength 70B
config partial_mesh.es_1.app[8].source.productionInterval 400us
config partial_mesh.es_1.app[8].source.initialProductionOffset 3us
config partial_mesh.es_3.app[14].typename UdpSinkApp
config partial_mesh.es_3.app[14].display-name tsn-29
config partial_mesh.es_3.app[14].io.localPort 5029
config partial_mesh.es_6.app[10].typename UdpSourceApp
config partial_mesh.es_6.app[10].display-name tsn-30
config partial_mesh.es_6.app[10].io.destAddress "\"es_4\""
config partial_mesh.es_6.app[10].io.destPort 5030
config partial_mesh.es_6.app[10].source.packetNameFormat "\"%M-%m-%c\""
config partial_mesh.es_6.app[10].source.packetLength 90B
config partial_mesh.es_6.app[10].source.productionInterval 2000us
config partial_mesh.es_6.app[10].source.initialProductionOffset 10us
config partial_mesh.es_4.app[9].typename UdpSinkApp
config partial_mesh.es_4.app[9].display-name tsn-30
config partial_mesh.es_4.app[9].io.localPort 5030
config partial_mesh.es_4.app[10].typename UdpSourceApp
config partial_mesh.es_4.app[10].display-name tsn-31
config partial_mesh.es_4.app[10].io.destAddress "\"es_2\""
config partial_mesh.es_4.app[10].io.destPort 5031
config partial_mesh.es_4.app[10].source.packetNameFormat "\"%M-%m-%c\""
config partial_mesh.es_4.app[10].source.packetLength 70B
config partial_mesh.es_4.app[10].source.productionInterval 200us
config partial_mesh.es_4.app[10].source.initialProductionOffset 3us
config partial_mesh.es_2.app[11].typename UdpSinkApp
config partial_mesh.es_2.app[11].display-name tsn-31
config partial_mesh.es_2.app[11].io.localPort 5031
config partial_mesh.es_6.app[11].typename UdpSourceApp
config partial_mesh.es_6.app[11].display-name tsn-32
config partial_mesh.es_6.app[11].io.destAddress "\"es_5\""
config partial_mesh.es_6.app[11].io.destPort 5032
config partial_mesh.es_6.app[11].source.packetNameFormat "\"%M-%m-%c\""
config partial_mesh.es_6.app[11].source.packetLength 70B
config partial_mesh.es_6.app[11].source.productionInterval 400us
config partial_mesh.es_6.app[11].source.initialProductionOffset 4us
config partial_mesh.es_5.app[6].typename UdpSinkApp
config partial_mesh.es_5.app[6].display-name tsn-32
config partial_mesh.es_5.app[6].io.localPort 5032
config partial_mesh.es_5.app[7].typename UdpSourceApp
config partial_mesh.es_5.app[7].display-name tsn-33
config partial_mesh.es_5.app[7].io.destAddress "\"es_4\""
config partial_mesh.es_5.app[7].io.destPort 5033
config partial_mesh.es_5.app[7].source.packetNameFormat "\"%M-%m-%c\""
config partial_mesh.es_5.app[7].source.packetLength 60B
config partial_mesh.es_5.app[7].source.productionInterval 500us
config partial_mesh.es_5.app[7].source.initialProductionOffset 1us
config partial_mesh.es_4.app[11].typename UdpSinkApp
config partial_mesh.es_4.app[11].display-name tsn-33
config partial_mesh.es_4.app[11].io.localPort 5033
config partial_mesh.es_5.app[8].typename UdpSourceApp
config partial_mesh.es_5.app[8].display-name tsn-34
config partial_mesh.es_5.app[8].io.destAddress "\"es_3\""
config partial_mesh.es_5.app[8].io.destPort 5034
config partial_mesh.es_5.app[8].source.packetNameFormat "\"%M-%m-%c\""
config partial_mesh.es_5.app[8].source.packetLength 50B
config partial_mesh.es_5.app[8].source.productionInterval 200us
config partial_mesh.es_5.app[8].source.initialProductionOffset 0us
config partial_mesh.es_3.app[15].typename UdpSinkApp
config partial_mesh.es_3.app[15].display-name tsn-34
config partial_mesh.es_3.app[15].io.localPort 5034
config partial_mesh.es_3.app[16].typename UdpSourceApp
config partial_mesh.es_3.app[16].display-name tsn-35
config partial_mesh.es_3.app[16].io.destAddress "\"es_2\""
config partial_mesh.es_3.app[16].io.destPort 5035
config partial_mesh.es_3.app[16].source.packetNameFormat "\"%M-%m-%c\""
config partial_mesh.es_3.app[16].source.packetLength 50B
config partial_mesh.es_3.app[16].source.productionInterval 100us
config partial_mesh.es_3.app[16].source.initialProductionOffset 0us
config partial_mesh.es_2.app[12].typename UdpSinkApp
config partial_mesh.es_2.app[12].display-name tsn-35
config partial_mesh.es_2.app[12].io.localPort 5035
config partial_mesh.es_6.app[12].typename UdpSourceApp
config partial_mesh.es_6.app[12].display-name tsn-36
config partial_mesh.es_6.app[12].io.destAddress "\"es_1\""
config partial_mesh.es_6.app[12].io.destPort 5036
config partial_mesh.es_6.app[12].source.packetNameFormat "\"%M-%m-%c\""
config partial_mesh.es_6.app[12].source.packetLength 40B
config partial_mesh.es_6.app[12].source.productionInterval 2000us
config partial_mesh.es_6.app[12].source.initialProductionOffset 7us
config partial_mesh.es_1.app[9].typename UdpSinkApp
config partial_mesh.es_1.app[9].display-name tsn-36
config partial_mesh.es_1.app[9].io.localPort 5036
config partial_mesh.es_6.app[13].typename UdpSourceApp
config partial_mesh.es_6.app[13].display-name tsn-37
config partial_mesh.es_6.app[13].io.destAddress "\"es_4\""
config partial_mesh.es_6.app[13].io.destPort 5037
config partial_mesh.es_6.app[13].source.packetNameFormat "\"%M-%m-%c\""
config partial_mesh.es_6.app[13].source.packetLength 50B
config partial_mesh.es_6.app[13].source.productionInterval 100us
config partial_mesh.es_6.app[13].source.initialProductionOffset 2us
config partial_mesh.es_4.app[12].typename UdpSinkApp
config partial_mesh.es_4.app[12].display-name tsn-37
config partial_mesh.es_4.app[12].io.localPort 5037
config partial_mesh.es_5.app[9].typename UdpSourceApp
config partial_mesh.es_5.app[9].display-name tsn-38
config partial_mesh.es_5.app[9].io.destAddress "\"es_2\""
config partial_mesh.es_5.app[9].io.destPort 5038
config partial_mesh.es_5.app[9].source.packetNameFormat "\"%M-%m-%c\""
config partial_mesh.es_5.app[9].source.packetLength 40B
config partial_mesh.es_5.app[9].source.productionInterval 1000us
config partial_mesh.es_5.app[9].source.initialProductionOffset 3us
config partial_mesh.es_2.app[13].typename UdpSinkApp
config partial_mesh.es_2.app[13].display-name tsn-38
config partial_mesh.es_2.app[13].io.localPort 5038
config partial_mesh.es_1.app[10].typename UdpSourceApp
config partial_mesh.es_1.app[10].display-name tsn-39
config partial_mesh.es_1.app[10].io.destAddress "\"es_5\""
config partial_mesh.es_1.app[10].io.destPort 5039
config partial_mesh.es_1.app[10].source.packetNameFormat "\"%M-%m-%c\""
config partial_mesh.es_1.app[10].source.packetLength 30B
config partial_mesh.es_1.app[10].source.productionInterval 2000us
config partial_mesh.es_1.app[10].source.initialProductionOffset 11us
config partial_mesh.es_5.app[10].typename UdpSinkApp
config partial_mesh.es_5.app[10].display-name tsn-39
config partial_mesh.es_5.app[10].io.localPort 5039
config partial_mesh.es_5.app[11].typename UdpSourceApp
config partial_mesh.es_5.app[11].display-name avb-40
config partial_mesh.es_5.app[11].io.destAddress "\"es_6\""
config partial_mesh.es_5.app[11].io.destPort 5040
config partial_mesh.es_5.app[11].source.packetNameFormat "\"%M-%m-%c\""
config partial_mesh.es_5.app[11].source.packetLength 1136B
config partial_mesh.es_5.app[11].source.productionInterval 125us
config partial_mesh.es_5.app[11].source.initialProductionOffset 0us
config partial_mesh.es_6.app[14].typename UdpSinkApp
config partial_mesh.es_6.app[14].display-name avb-40
config partial_mesh.es_6.app[14].io.localPort 5040
config partial_mesh.es_6.app[15].typename UdpSourceApp
config partial_mesh.es_6.app[15].display-name avb-41
config partial_mesh.es_6.app[15].io.destAddress "\"es_3\""
config partial_mesh.es_6.app[15].io.destPort 5041
config partial_mesh.es_6.app[15].source.packetNameFormat "\"%M-%m-%c\""
config partial_mesh.es_6.app[15].source.packetLength 1436B
config partial_mesh.es_6.app[15].source.productionInterval 125us
config partial_mesh.es_6.app[15].source.initialProductionOffset 0us
config partial_mesh.es_3.app[17].typename UdpSinkApp
config partial_mesh.es_3.app[17].display-name avb-41
config partial_mesh.es_3.app[17].io.localPort 5041
config partial_mesh.es_2.app[14].typename UdpSourceApp
config partial_mesh.es_2.app[14].display-name avb-42
config partial_mesh.es_2.app[14].io.destAddress "\"es_6\""
config partial_mesh.es_2.app[14].io.destPort 5042
config partial_mesh.es_2.app[14].source.packetNameFormat "\"%M-%m-%c\""
config partial_mesh.es_2.app[14].source.packetLength 936B
config partial_mesh.es_2.app[14].source.productionInterval 125us
config partial_mesh.es_2.app[14].source.initialProductionOffset 0us
config partial_mesh.es_6.app[16].typename UdpSinkApp
config partial_mesh.es_6.app[16].display-name avb-42
config partial_mesh.es_6.app[16].io.localPort 5042
config partial_mesh.es_3.app[18].typename UdpSourceApp
config partial_mesh.es_3.app[18].display-name avb-43
config partial_mesh.es_3.app[18].io.destAddress "\"es_1\""
config partial_mesh.es_3.app[18].io.destPort 5043
config partial_mesh.es_3.app[18].source.packetNameFormat "\"%M-%m-%c\""
config partial_mesh.es_3.app[18].source.packetLength 1036B
config partial_mesh.es_3.app[18].source.productionInterval 125us
config partial_mesh.es_3.app[18].source.initialProductionOffset 0us
config partial_mesh.es_1.app[11].typename UdpSinkApp
config partial_mesh.es_1.app[11].display-name avb-43
config partial_mesh.es_1.app[11].io.localPort 5043
config partial_mesh.es_5.app[12].typename UdpSourceApp
config partial_mesh.es_5.app[12].display-name avb-44
config partial_mesh.es_5.app[12].io.destAddress "\"es_4\""
config partial_mesh.es_5.app[12].io.destPort 5044
config partial_mesh.es_5.app[12].source.packetNameFormat "\"%M-%m-%c\""
config partial_mesh.es_5.app[12].source.packetLength 1036B
config partial_mesh.es_5.app[12].source.productionInterval 125us
config partial_mesh.es_5.app[12].source.initialProductionOffset 0us
config partial_mesh.es_4.app[13].typename UdpSinkApp
config partial_mesh.es_4.app[13].display-name avb-44
config partial_mesh.es_4.app[13].io.localPort 5044
config partial_mesh.es_4.app[14].typename UdpSourceApp
config partial_mesh.es_4.app[14].display-name avb-45
config partial_mesh.es_4.app[14].io.destAddress "\"es_5\""
config partial_mesh.es_4.app[14].io.destPort 5045
config partial_mesh.es_4.app[14].source.packetNameFormat "\"%M-%m-%c\""
config partial_mesh.es_4.app[14].source.packetLength 936B
config partial_mesh.es_4.app[14].source.productionInterval 125us
config partial_mesh.es_4.app[14].source.initialProductionOffset 0us
config partial_mesh.es_5.app[13].typename UdpSinkApp
config partial_mesh.es_5.app[13].display-name avb-45
config partial_mesh.es_5.app[13].io.localPort 5045
config partial_mesh.es_6.app[17].typename UdpSourceApp
config partial_mesh.es_6.app[17].display-name avb-46
config partial_mesh.es_6.app[17].io.destAddress "\"es_1\""
config partial_mesh.es_6.app[17].io.destPort 5046
config partial_mesh.es_6.app[17].source.packetNameFormat "\"%M-%m-%c\""
config partial_mesh.es_6.app[17].source.packetLength 1036B
config partial_mesh.es_6.app[17].source.productionInterval 125us
config partial_mesh.es_6.app[17].source.initialProductionOffset 0us
config partial_mesh.es_1.app[12].typename UdpSinkApp
config partial_mesh.es_1.app[12].display-name avb-46
config partial_mesh.es_1.app[12].io.localPort 5046
config partial_mesh.es_4.app[15].typename UdpSourceApp
config partial_mesh.es_4.app[15].display-name avb-47
config partial_mesh.es_4.app[15].io.destAddress "\"es_2\""
config partial_mesh.es_4.app[15].io.destPort 5047
config partial_mesh.es_4.app[15].source.packetNameFormat "\"%M-%m-%c\""
config partial_mesh.es_4.app[15].source.packetLength 1336B
config partial_mesh.es_4.app[15].source.productionInterval 125us
config partial_mesh.es_4.app[15].source.initialProductionOffset 0us
config partial_mesh.es_2.app[15].typename UdpSinkApp
config partial_mesh.es_2.app[15].display-name avb-47
config partial_mesh.es_2.app[15].io.localPort 5047
config partial_mesh.es_1.app[13].typename UdpSourceApp
config partial_mesh.es_1.app[13].display-name avb-48
config partial_mesh.es_1.app[13].io.destAddress "\"es_6\""
config partial_mesh.es_1.app[13].io.destPort 5048
config partial_mesh.es_1.app[13].source.packetNameFormat "\"%M-%m-%c\""
config partial_mesh.es_1.app[13].source.packetLength 1436B
config partial_mesh.es_1.app[13].source.productionInterval 125us
config partial_mesh.es_1.app[13].source.initialProductionOffset 0us
config partial_mesh.es_6.app[18].typename UdpSinkApp
config partial_mesh.es_6.app[18].display-name avb-48
config partial_mesh.es_6.app[18].io.localPort 5048
config partial_mesh.es_3.app[19].typename UdpSourceApp
config partial_mesh.es_3.app[19].display-name avb-49
config partial_mesh.es_3.app[19].io.destAddress "\"es_2\""
config partial_mesh.es_3.app[19].io.destPort 5049
config partial_mesh.es_3.app[19].source.packetNameFormat "\"%M-%m-%c\""
config partial_mesh.es_3.app[19].source.packetLength 936B
config partial_mesh.es_3.app[19].source.productionInterval 125us
config partial_mesh.es_3.app[19].source.initialProductionOffset 0us
config partial_mesh.es_2.app[16].typename UdpSinkApp
config partial_mesh.es_2.app[16].display-name avb-49
config partial_mesh.es_2.app[16].io.localPort 5049
config partial_mesh.es_2.app[17].typename UdpSourceApp
config partial_mesh.es_2.app[17].display-name avb-50
config partial_mesh.es_2.app[17].io.destAddress "\"es_1\""
config partial_mesh.es_2.app[17].io.destPort 5050
config partial_mesh.es_2.app[17].source.packetNameFormat "\"%M-%m-%c\""
config partial_mesh.es_2.app[17].source.packetLength 936B
config partial_mesh.es_2.app[17].source.productionInterval 125us
config partial_mesh.es_2.app[17].source.initialProductionOffset 0us
config partial_mesh.es_1.app[14].typename UdpSinkApp
config partial_mesh.es_1.app[14].display-name avb-50
config partial_mesh.es_1.app[14].io.localPort 5050
config partial_mesh.es_4.app[16].typename UdpSourceApp
config partial_mesh.es_4.app[16].display-name avb-51
config partial_mesh.es_4.app[16].io.destAddress "\"es_2\""
config partial_mesh.es_4.app[16].io.destPort 5051
config partial_mesh.es_4.app[16].source.packetNameFormat "\"%M-%m-%c\""
config partial_mesh.es_4.app[16].source.packetLength 1336B
config partial_mesh.es_4.app[16].source.productionInterval 125us
config partial_mesh.es_4.app[16].source.initialProductionOffset 0us
config partial_mesh.es_2.app[18].typename UdpSinkApp
config partial_mesh.es_2.app[18].display-name avb-51
config partial_mesh.es_2.app[18].io.localPort 5051
config partial_mesh.es_3.app[20].typename UdpSourceApp
config partial_mesh.es_3.app[20].display-name avb-52
config partial_mesh.es_3.app[20].io.destAddress "\"es_2\""
config partial_mesh.es_3.app[20].io.destPort 5052
config partial_mesh.es_3.app[20].source.packetNameFormat "\"%M-%m-%c\""
config partial_mesh.es_3.app[20].source.packetLength 1136B
config partial_mesh.es_3.app[20].source.productionInterval 125us
config partial_mesh.es_3.app[20].source.initialProductionOffset 0us
config partial_mesh.es_2.app[19].typename UdpSinkApp
config partial_mesh.es_2.app[19].display-name avb-52
config partial_mesh.es_2.app[19].io.localPort 5052
config partial_mesh.es_1.app[15].typename UdpSourceApp
config partial_mesh.es_1.app[15].display-name avb-53
config partial_mesh.es_1.app[15].io.destAddress "\"es_4\""
config partial_mesh.es_1.app[15].io.destPort 5053
config partial_mesh.es_1.app[15].source.packetNameFormat "\"%M-%m-%c\""
config partial_mesh.es_1.app[15].source.packetLength 1136B
config partial_mesh.es_1.app[15].source.productionInterval 125us
config partial_mesh.es_1.app[15].source.initialProductionOffset 0us
config partial_mesh.es_4.app[17].typename UdpSinkApp
config partial_mesh.es_4.app[17].display-name avb-53
config partial_mesh.es_4.app[17].io.localPort 5053
config partial_mesh.es_4.app[18].typename UdpSourceApp
config partial_mesh.es_4.app[18].display-name avb-54
config partial_mesh.es_4.app[18].io.destAddress "\"es_6\""
config partial_mesh.es_4.app[18].io.destPort 5054
config partial_mesh.es_4.app[18].source.packetNameFormat "\"%M-%m-%c\""
config partial_mesh.es_4.app[18].source.packetLength 1436B
config partial_mesh.es_4.app[18].source.productionInterval 125us
config partial_mesh.es_4.app[18].source.initialProductionOffset 0us
config partial_mesh.es_6.app[19].typename UdpSinkApp
config partial_mesh.es_6.app[19].display-name avb-54
config partial_mesh.es_6.app[19].io.localPort 5054
config partial_mesh.es_5.app[14].typename UdpSourceApp
config partial_mesh.es_5.app[14].display-name avb-55
config partial_mesh.es_5.app[14].io.destAddress "\"es_1\""
config partial_mesh.es_5.app[14].io.destPort 5055
config partial_mesh.es_5.app[14].source.packetNameFormat "\"%M-%m-%c\""
config partial_mesh.es_5.app[14].source.packetLength 1336B
config partial_mesh.es_5.app[14].source.productionInterval 125us
config partial_mesh.es_5.app[14].source.initialProductionOffset 0us
config partial_mesh.es_1.app[16].typename UdpSinkApp
config partial_mesh.es_1.app[16].display-name avb-55
config partial_mesh.es_1.app[16].io.localPort 5055
config partial_mesh.es_6.app[20].typename UdpSourceApp
config partial_mesh.es_6.app[20].display-name avb-56
config partial_mesh.es_6.app[20].io.destAddress "\"es_5\""
config partial_mesh.es_6.app[20].io.destPort 5056
config partial_mesh.es_6.app[20].source.packetNameFormat "\"%M-%m-%c\""
config partial_mesh.es_6.app[20].source.packetLength 1036B
config partial_mesh.es_6.app[20].source.productionInterval 125us
config partial_mesh.es_6.app[20].source.initialProductionOffset 0us
config partial_mesh.es_5.app[15].typename UdpSinkApp
config partial_mesh.es_5.app[15].display-name avb-56
config partial_mesh.es_5.app[15].io.localPort 5056
config partial_mesh.es_6.app[21].typename UdpSourceApp
config partial_mesh.es_6.app[21].display-name avb-57
config partial_mesh.es_6.app[21].io.destAddress "\"es_1\""
config partial_mesh.es_6.app[21].io.destPort 5057
config partial_mesh.es_6.app[21].source.packetNameFormat "\"%M-%m-%c\""
config partial_mesh.es_6.app[21].source.packetLength 1036B
config partial_mesh.es_6.app[21].source.productionInterval 125us
config partial_mesh.es_6.app[21].source.initialProductionOffset 0us
config partial_mesh.es_1.app[17].typename UdpSinkApp
config partial_mesh.es_1.app[17].display-name avb-57
config partial_mesh.es_1.app[17].io.localPort 5057
config partial_mesh.es_4.app[19].typename UdpSourceApp
config partial_mesh.es_4.app[19].display-name avb-58
config partial_mesh.es_4.app[19].io.destAddress "\"es_5\""
config partial_mesh.es_4.app[19].io.destPort 5058
config partial_mesh.es_4.app[19].source.packetNameFormat "\"%M-%m-%c\""
config partial_mesh.es_4.app[19].source.packetLength 1236B
config partial_mesh.es_4.app[19].source.productionInterval 125us
config partial_mesh.es_4.app[19].source.initialProductionOffset 0us
config partial_mesh.es_5.app[16].typename UdpSinkApp
config partial_mesh.es_5.app[16].display-name avb-58
config partial_mesh.es_5.app[16].io.localPort 5058
config partial_mesh.es_4.app[20].typename UdpSourceApp
config partial_mesh.es_4.app[20].display-name avb-59
config partial_mesh.es_4.app[20].io.destAddress "\"es_6\""
config partial_mesh.es_4.app[20].io.destPort 5059
config partial_mesh.es_4.app[20].source.packetNameFormat "\"%M-%m-%c\""
config partial_mesh.es_4.app[20].source.packetLength 936B
config partial_mesh.es_4.app[20].source.productionInterval 125us
config partial_mesh.es_4.app[20].source.initialProductionOffset 0us
config partial_mesh.es_6.app[22].typename UdpSinkApp
config partial_mesh.es_6.app[22].display-name avb-59
config partial_mesh.es_6.app[22].io.localPort 5059
config *.*.eth[*].macLayer.queue.classifier.mapping "[[0, 0, 0, 0, 0, 0, 0, 0],\n                                                [0, 0, 0, 0, 0, 1, 1, 1],\n                                                [0, 0, 0, 1, 1, 2, 2, 2],\n                                                [0, 0, 0, 1, 1, 2, 3, 3],\n                                                [0, 1, 1, 2, 2, 3, 4, 4],\n                                                [0, 1, 1, 2, 2, 3, 4, 5],\n                                                [0, 1, 2, 3, 3, 4, 5, 6],\n                                                [0, 1, 2, 3, 4, 5, 6, 7]]"
config *.macForwardingTableConfigurator.typename ""
config *.*.hasStreamRedundancy true
config *.*.bridging.streamRelay.typename StreamRelayLayer
config *.*.bridging.streamCoder.typename StreamCoderLayer
config *.streamRedundancyConfigurator.typename r438StreamRedundancyConfigurator
config *.streamRedundancyConfigurator.configuration "[\n\t{pcp: 0, name: \"tsn-0\", packetFilter: \"*-tsn-0-*\", source: \"es_6\", destination: \"es_2\", trees: [[[\"es_6\", \"s_12\", \"s_11\", \"s_7\", \"s_3\", \"s_4\", \"es_2\"]], [[\"es_6\", \"s_12\", \"s_8\", \"s_4\", \"es_2\"]]]},\n\t{pcp: 0, name: \"tsn-1\", packetFilter: \"*-tsn-1-*\", source: \"es_5\", destination: \"es_6\", trees: [[[\"es_5\", \"s_9\", \"s_5\", \"s_6\", \"s_7\", \"s_8\", \"s_12\", \"es_6\"]], [[\"es_5\", \"s_9\", \"s_10\", \"s_11\", \"s_12\", \"es_6\"]]]},\n\t{pcp: 1, name: \"tsn-2\", packetFilter: \"*-tsn-2-*\", source: \"es_4\", destination: \"es_3\", trees: [[[\"es_4\", \"s_8\", \"s_7\", \"s_6\", \"s_5\", \"es_3\"]], [[\"es_4\", \"s_8\", \"s_12\", \"s_11\", \"s_10\", \"s_9\", \"s_5\", \"es_3\"]]]},\n\t{pcp: 0, name: \"tsn-3\", packetFilter: \"*-tsn-3-*\", source: \"es_4\", destination: \"es_3\", trees: [[[\"es_4\", \"s_8\", \"s_7\", \"s_6\", \"s_5\", \"es_3\"]], [[\"es_4\", \"s_8\", \"s_4\", \"s_3\", \"s_2\", \"s_1\", \"s_5\", \"es_3\"]]]},\n\t{pcp: 0, name: \"tsn-4\", packetFilter: \"*-tsn-4-*\", source: \"es_1\", destination: \"es_4\", trees: [[[\"es_1\", \"s_1\", \"s_2\", \"s_3\", \"s_4\", \"s_8\", \"es_4\"]], [[\"es_1\", \"s_1\", \"s_5\", \"s_6\", \"s_7\", \"s_8\", \"es_4\"]]]},\n\t{pcp: 0, name: \"tsn-5\", packetFilter: \"*-tsn-5-*\", source: \"es_3\", destination: \"es_6\", trees: [[[\"es_3\", \"s_5\", \"s_6\", \"s_7\", \"s_8\", \"s_12\", \"es_6\"]], [[\"es_3\", \"s_5\", \"s_9\", \"s_10\", \"s_11\", \"s_12\", \"es_6\"]]]},\n\t{pcp: 0, name: \"tsn-6\", packetFilter: \"*-tsn-6-*\", source: \"es_1\", destination: \"es_3\", trees: [[[\"es_1\", \"s_1\", \"s_2\", \"s_6\", \"s_5\", \"es_3\"]], [[\"es_1\", \"s_1\", \"s_5\", \"es_3\"]]]},\n\t{pcp: 0, name: \"tsn-7\", packetFilter: \"*-tsn-7-*\", source: \"es_3\", destination: \"es_2\", trees: [[[\"es_3\", \"s_5\", \"s_1\", \"s_2\", \"s_3\", \"s_4\", \"es_2\"]], [[\"es_3\", \"s_5\", \"s_6\", \"s_7\", \"s_8\", \"s_4\", \"es_2\"]]]},\n\t{pcp: 1, name: \"tsn-8\", packetFilter: \"*-tsn-8-*\", source: \"es_2\", destination: \"es_5\", trees: [[[\"es_2\", \"s_4\", \"s_3\", \"s_2\", \"s_6\", \"s_5\", \"s_9\", \"es_5\"]], [[\"es_2\", \"s_4\", \"s_8\", \"s_12\", \"s_11\", \"s_10\", \"s_9\", \"es_5\"]]]},\n\t{pcp: 1, name: \"tsn-9\", packetFilter: \"*-tsn-9-*\", source: \"es_3\", destination: \"es_6\", trees: [[[\"es_3\", \"s_5\", \"s_1\", \"s_2\", \"s_3\", \"s_7\", \"s_8\", \"s_12\", \"es_6\"]], [[\"es_3\", \"s_5\", \"s_9\", \"s_10\", \"s_11\", \"s_12\", \"es_6\"]]]},\n\t{pcp: 0, name: \"tsn-10\", packetFilter: \"*-tsn-10-*\", source: \"es_4\", destination: \"es_2\", trees: [[[\"es_4\", \"s_8\", \"s_7\", \"s_3\", \"s_4\", \"es_2\"]], [[\"es_4\", \"s_8\", \"s_4\", \"es_2\"]]]},\n\t{pcp: 0, name: \"tsn-11\", packetFilter: \"*-tsn-11-*\", source: \"es_2\", destination: \"es_1\", trees: [[[\"es_2\", \"s_4\", \"s_3\", \"s_2\", \"s_1\", \"es_1\"]], [[\"es_2\", \"s_4\", \"s_8\", \"s_12\", \"s_11\", \"s_10\", \"s_9\", \"s_5\", \"s_1\", \"es_1\"]]]},\n\t{pcp: 0, name: \"tsn-12\", packetFilter: \"*-tsn-12-*\", source: \"es_6\", destination: \"es_4\", trees: [[[\"es_6\", \"s_12\", \"s_11\", \"s_7\", \"s_8\", \"es_4\"]], [[\"es_6\", \"s_12\", \"s_8\", \"es_4\"]]]},\n\t{pcp: 0, name: \"tsn-13\", packetFilter: \"*-tsn-13-*\", source: \"es_2\", destination: \"es_1\", trees: [[[\"es_2\", \"s_4\", \"s_3\", \"s_2\", \"s_1\", \"es_1\"]], [[\"es_2\", \"s_4\", \"s_8\", \"s_7\", \"s_6\", \"s_5\", \"s_1\", \"es_1\"]]]},\n\t{pcp: 0, name: \"tsn-14\", packetFilter: \"*-tsn-14-*\", source: \"es_3\", destination: \"es_2\", trees: [[[\"es_3\", \"s_5\", \"s_1\", \"s_2\", \"s_3\", \"s_4\", \"es_2\"]], [[\"es_3\", \"s_5\", \"s_6\", \"s_7\", \"s_8\", \"s_4\", \"es_2\"]]]},\n\t{pcp: 0, name: \"tsn-15\", packetFilter: \"*-tsn-15-*\", source: \"es_3\", destination: \"es_5\", trees: [[[\"es_3\", \"s_5\", \"s_6\", \"s_10\", \"s_9\", \"es_5\"]], [[\"es_3\", \"s_5\", \"s_9\", \"es_5\"]]]},\n\t{pcp: 1, name: \"tsn-16\", packetFilter: \"*-tsn-16-*\", source: \"es_6\", destination: \"es_2\", trees: [[[\"es_6\", \"s_12\", \"s_11\", \"s_7\", \"s_3\", \"s_4\", \"es_2\"]], [[\"es_6\", \"s_12\", \"s_8\", \"s_4\", \"es_2\"]]]},\n\t{pcp: 0, name: \"tsn-17\", packetFilter: \"*-tsn-17-*\", source: \"es_1\", destination: \"es_3\", trees: [[[\"es_1\", \"s_1\", \"s_2\", \"s_6\", \"s_5\", \"es_3\"]], [[\"es_1\", \"s_1\", \"s_5\", \"es_3\"]]]},\n\t{pcp: 0, name: \"tsn-18\", packetFilter: \"*-tsn-18-*\", source: \"es_3\", destination: \"es_4\", trees: [[[\"es_3\", \"s_5\", \"s_6\", \"s_7\", \"s_8\", \"es_4\"]], [[\"es_3\", \"s_5\", \"s_9\", \"s_10\", \"s_11\", \"s_12\", \"s_8\", \"es_4\"]]]},\n\t{pcp: 1, name: \"tsn-19\", packetFilter: \"*-tsn-19-*\", source: \"es_1\", destination: \"es_5\", trees: [[[\"es_1\", \"s_1\", \"s_2\", \"s_6\", \"s_10\", \"s_9\", \"es_5\"]], [[\"es_1\", \"s_1\", \"s_5\", \"s_9\", \"es_5\"]]]},\n\t{pcp: 0, name: \"tsn-20\", packetFilter: \"*-tsn-20-*\", source: \"es_6\", destination: \"es_5\", trees: [[[\"es_6\", \"s_12\", \"s_11\", \"s_10\", \"s_9\", \"es_5\"]], [[\"es_6\", \"s_12\", \"s_8\", \"s_7\", \"s_6\", \"s_5\", \"s_9\", \"es_5\"]]]},\n\t{pcp: 0, name: \"tsn-21\", packetFilter: \"*-tsn-21-*\", source: \"es_1\", destination: \"es_6\", trees: [[[\"es_1\", \"s_1\", \"s_2\", \"s_3\", \"s_4\", \"s_8\", \"s_12\", \"es_6\"]], [[\"es_1\", \"s_1\", \"s_5\", \"s_9\", \"s_10\", \"s_11\", \"s_12\", \"es_6\"]]]},\n\t{pcp: 1, name: \"tsn-22\", packetFilter: \"*-tsn-22-*\", source: \"es_5\", destination: \"es_3\", trees: [[[\"es_5\", \"s_9\", \"s_5\", \"es_3\"]], [[\"es_5\", \"s_9\", \"s_10\", \"s_6\", \"s_5\", \"es_3\"]]]},\n\t{pcp: 0, name: \"tsn-23\", packetFilter: \"*-tsn-23-*\", source: \"es_2\", destination: \"es_4\", trees: [[[\"es_2\", \"s_4\", \"s_3\", \"s_7\", \"s_8\", \"es_4\"]], [[\"es_2\", \"s_4\", \"s_8\", \"es_4\"]]]},\n\t{pcp: 0, name: \"tsn-24\", packetFilter: \"*-tsn-24-*\", source: \"es_6\", destination: \"es_3\", trees: [[[\"es_6\", \"s_12\", \"s_11\", \"s_10\", \"s_9\", \"s_5\", \"es_3\"]], [[\"es_6\", \"s_12\", \"s_8\", \"s_7\", \"s_6\", \"s_5\", \"es_3\"]]]},\n\t{pcp: 0, name: \"tsn-25\", packetFilter: \"*-tsn-25-*\", source: \"es_4\", destination: \"es_3\", trees: [[[\"es_4\", \"s_8\", \"s_7\", \"s_6\", \"s_5\", \"es_3\"]], [[\"es_4\", \"s_8\", \"s_4\", \"s_3\", \"s_2\", \"s_1\", \"s_5\", \"es_3\"]]]},\n\t{pcp: 0, name: \"tsn-26\", packetFilter: \"*-tsn-26-*\", source: \"es_2\", destination: \"es_3\", trees: [[[\"es_2\", \"s_4\", \"s_3\", \"s_2\", \"s_1\", \"s_5\", \"es_3\"]], [[\"es_2\", \"s_4\", \"s_8\", \"s_7\", \"s_6\", \"s_10\", \"s_9\", \"s_5\", \"es_3\"]]]},\n\t{pcp: 0, name: \"tsn-27\", packetFilter: \"*-tsn-27-*\", source: \"es_4\", destination: \"es_6\", trees: [[[\"es_4\", \"s_8\", \"s_7\", \"s_11\", \"s_12\", \"es_6\"]], [[\"es_4\", \"s_8\", \"s_12\", \"es_6\"]]]},\n\t{pcp: 1, name: \"tsn-28\", packetFilter: \"*-tsn-28-*\", source: \"es_1\", destination: \"es_2\", trees: [[[\"es_1\", \"s_1\", \"s_2\", \"s_3\", \"s_4\", \"es_2\"]], [[\"es_1\", \"s_1\", \"s_5\", \"s_9\", \"s_10\", \"s_11\", \"s_7\", \"s_8\", \"s_4\", \"es_2\"]]]},\n\t{pcp: 0, name: \"tsn-29\", packetFilter: \"*-tsn-29-*\", source: \"es_1\", destination: \"es_3\", trees: [[[\"es_1\", \"s_1\", \"s_2\", \"s_6\", \"s_10\", \"s_9\", \"s_5\", \"es_3\"]], [[\"es_1\", \"s_1\", \"s_5\", \"es_3\"]]]},\n\t{pcp: 0, name: \"tsn-30\", packetFilter: \"*-tsn-30-*\", source: \"es_6\", destination: \"es_4\", trees: [[[\"es_6\", \"s_12\", \"s_11\", \"s_7\", \"s_8\", \"es_4\"]], [[\"es_6\", \"s_12\", \"s_8\", \"es_4\"]]]},\n\t{pcp: 0, name: \"tsn-31\", packetFilter: \"*-tsn-31-*\", source: \"es_4\", destination: \"es_2\", trees: [[[\"es_4\", \"s_8\", \"s_7\", \"s_3\", \"s_4\", \"es_2\"]], [[\"es_4\", \"s_8\", \"s_4\", \"es_2\"]]]},\n\t{pcp: 0, name: \"tsn-32\", packetFilter: \"*-tsn-32-*\", source: \"es_6\", destination: \"es_5\", trees: [[[\"es_6\", \"s_12\", \"s_11\", \"s_10\", \"s_9\", \"es_5\"]], [[\"es_6\", \"s_12\", \"s_8\", \"s_4\", \"s_3\", \"s_2\", \"s_1\", \"s_5\", \"s_9\", \"es_5\"]]]},\n\t{pcp: 1, name: \"tsn-33\", packetFilter: \"*-tsn-33-*\", source: \"es_5\", destination: \"es_4\", trees: [[[\"es_5\", \"s_9\", \"s_5\", \"s_6\", \"s_7\", \"s_8\", \"es_4\"]], [[\"es_5\", \"s_9\", \"s_10\", \"s_11\", \"s_12\", \"s_8\", \"es_4\"]]]},\n\t{pcp: 1, name: \"tsn-34\", packetFilter: \"*-tsn-34-*\", source: \"es_5\", destination: \"es_3\", trees: [[[\"es_5\", \"s_9\", \"s_5\", \"es_3\"]], [[\"es_5\", \"s_9\", \"s_10\", \"s_6\", \"s_5\", \"es_3\"]]]},\n\t{pcp: 0, name: \"tsn-35\", packetFilter: \"*-tsn-35-*\", source: \"es_3\", destination: \"es_2\", trees: [[[\"es_3\", \"s_5\", \"s_6\", \"s_2\", \"s_3\", \"s_4\", \"es_2\"]], [[\"es_3\", \"s_5\", \"s_9\", \"s_10\", \"s_11\", \"s_7\", \"s_8\", \"s_4\", \"es_2\"]]]},\n\t{pcp: 0, name: \"tsn-36\", packetFilter: \"*-tsn-36-*\", source: \"es_6\", destination: \"es_1\", trees: [[[\"es_6\", \"s_12\", \"s_11\", \"s_10\", \"s_9\", \"s_5\", \"s_1\", \"es_1\"]], [[\"es_6\", \"s_12\", \"s_8\", \"s_7\", \"s_3\", \"s_2\", \"s_1\", \"es_1\"]]]},\n\t{pcp: 0, name: \"tsn-37\", packetFilter: \"*-tsn-37-*\", source: \"es_6\", destination: \"es_4\", trees: [[[\"es_6\", \"s_12\", \"s_11\", \"s_7\", \"s_8\", \"es_4\"]], [[\"es_6\", \"s_12\", \"s_8\", \"es_4\"]]]},\n\t{pcp: 1, name: \"tsn-38\", packetFilter: \"*-tsn-38-*\", source: \"es_5\", destination: \"es_2\", trees: [[[\"es_5\", \"s_9\", \"s_5\", \"s_1\", \"s_2\", \"s_3\", \"s_4\", \"es_2\"]], [[\"es_5\", \"s_9\", \"s_10\", \"s_11\", \"s_7\", \"s_8\", \"s_4\", \"es_2\"]]]},\n\t{pcp: 0, name: \"tsn-39\", packetFilter: \"*-tsn-39-*\", source: \"es_1\", destination: \"es_5\", trees: [[[\"es_1\", \"s_1\", \"s_2\", \"s_6\", \"s_10\", \"s_9\", \"es_5\"]], [[\"es_1\", \"s_1\", \"s_5\", \"s_9\", \"es_5\"]]]},\n\t{pcp: 7, name: \"avb-40\", packetFilter: \"*-avb-40-*\", source: \"es_5\", destination: \"es_6\", trees: [[[\"es_5\", \"s_9\", \"s_5\", \"s_6\", \"s_7\", \"s_8\", \"s_12\", \"es_6\"]], [[\"es_5\", \"s_9\", \"s_10\", \"s_11\", \"s_12\", \"es_6\"]]]},\n\t{pcp: 7, name: \"avb-41\", packetFilter: \"*-avb-41-*\", source: \"es_6\", destination: \"es_3\", trees: [[[\"es_6\", \"s_12\", \"s_11\", \"s_10\", \"s_9\", \"s_5\", \"es_3\"]], [[\"es_6\", \"s_12\", \"s_8\", \"s_7\", \"s_6\", \"s_5\", \"es_3\"]]]},\n\t{pcp: 7, name: \"avb-42\", packetFilter: \"*-avb-42-*\", source: \"es_2\", destination: \"es_6\", trees: [[[\"es_2\", \"s_4\", \"s_3\", \"s_7\", \"s_11\", \"s_12\", \"es_6\"]], [[\"es_2\", \"s_4\", \"s_8\", \"s_12\", \"es_6\"]]]},\n\t{pcp: 7, name: \"avb-43\", packetFilter: \"*-avb-43-*\", source: \"es_3\", destination: \"es_1\", trees: [[[\"es_3\", \"s_5\", \"s_1\", \"es_1\"]], [[\"es_3\", \"s_5\", \"s_6\", \"s_2\", \"s_1\", \"es_1\"]]]},\n\t{pcp: 7, name: \"avb-44\", packetFilter: \"*-avb-44-*\", source: \"es_5\", destination: \"es_4\", trees: [[[\"es_5\", \"s_9\", \"s_5\", \"s_6\", \"s_7\", \"s_8\", \"es_4\"]], [[\"es_5\", \"s_9\", \"s_10\", \"s_11\", \"s_12\", \"s_8\", \"es_4\"]]]},\n\t{pcp: 7, name: \"avb-45\", packetFilter: \"*-avb-45-*\", source: \"es_4\", destination: \"es_5\", trees: [[[\"es_4\", \"s_8\", \"s_7\", \"s_6\", \"s_5\", \"s_9\", \"es_5\"]], [[\"es_4\", \"s_8\", \"s_12\", \"s_11\", \"s_10\", \"s_9\", \"es_5\"]]]},\n\t{pcp: 7, name: \"avb-46\", packetFilter: \"*-avb-46-*\", source: \"es_6\", destination: \"es_1\", trees: [[[\"es_6\", \"s_12\", \"s_11\", \"s_10\", \"s_6\", \"s_5\", \"s_1\", \"es_1\"]], [[\"es_6\", \"s_12\", \"s_8\", \"s_4\", \"s_3\", \"s_2\", \"s_1\", \"es_1\"]]]},\n\t{pcp: 7, name: \"avb-47\", packetFilter: \"*-avb-47-*\", source: \"es_4\", destination: \"es_2\", trees: [[[\"es_4\", \"s_8\", \"s_7\", \"s_3\", \"s_4\", \"es_2\"]], [[\"es_4\", \"s_8\", \"s_4\", \"es_2\"]]]},\n\t{pcp: 7, name: \"avb-48\", packetFilter: \"*-avb-48-*\", source: \"es_1\", destination: \"es_6\", trees: [[[\"es_1\", \"s_1\", \"s_2\", \"s_3\", \"s_4\", \"s_8\", \"s_12\", \"es_6\"]], [[\"es_1\", \"s_1\", \"s_5\", \"s_9\", \"s_10\", \"s_11\", \"s_12\", \"es_6\"]]]},\n\t{pcp: 7, name: \"avb-49\", packetFilter: \"*-avb-49-*\", source: \"es_3\", destination: \"es_2\", trees: [[[\"es_3\", \"s_5\", \"s_1\", \"s_2\", \"s_3\", \"s_4\", \"es_2\"]], [[\"es_3\", \"s_5\", \"s_6\", \"s_7\", \"s_8\", \"s_4\", \"es_2\"]]]},\n\t{pcp: 7, name: \"avb-50\", packetFilter: \"*-avb-50-*\", source: \"es_2\", destination: \"es_1\", trees: [[[\"es_2\", \"s_4\", \"s_3\", \"s_2\", \"s_1\", \"es_1\"]], [[\"es_2\", \"s_4\", \"s_8\", \"s_7\", \"s_6\", \"s_5\", \"s_1\", \"es_1\"]]]},\n\t{pcp: 7, name: \"avb-51\", packetFilter: \"*-avb-51-*\", source: \"es_4\", destination: \"es_2\", trees: [[[\"es_4\", \"s_8\", \"s_7\", \"s_3\", \"s_4\", \"es_2\"]], [[\"es_4\", \"s_8\", \"s_4\", \"es_2\"]]]},\n\t{pcp: 7, name: \"avb-52\", packetFilter: \"*-avb-52-*\", source: \"es_3\", destination: \"es_2\", trees: [[[\"es_3\", \"s_5\", \"s_1\", \"s_2\", \"s_3\", \"s_4\", \"es_2\"]], [[\"es_3\", \"s_5\", \"s_6\", \"s_7\", \"s_8\", \"s_4\", \"es_2\"]]]},\n\t{pcp: 7, name: \"avb-53\", packetFilter: \"*-avb-53-*\", source: \"es_1\", destination: \"es_4\", trees: [[[\"es_1\", \"s_1\", \"s_2\", \"s_3\", \"s_4\", \"s_8\", \"es_4\"]], [[\"es_1\", \"s_1\", \"s_5\", \"s_6\", \"s_7\", \"s_8\", \"es_4\"]]]},\n\t{pcp: 7, name: \"avb-54\", packetFilter: \"*-avb-54-*\", source: \"es_4\", destination: \"es_6\", trees: [[[\"es_4\", \"s_8\", \"s_7\", \"s_11\", \"s_12\", \"es_6\"]], [[\"es_4\", \"s_8\", \"s_12\", \"es_6\"]]]},\n\t{pcp: 7, name: \"avb-55\", packetFilter: \"*-avb-55-*\", source: \"es_5\", destination: \"es_1\", trees: [[[\"es_5\", \"s_9\", \"s_5\", \"s_1\", \"es_1\"]], [[\"es_5\", \"s_9\", \"s_10\", \"s_6\", \"s_2\", \"s_1\", \"es_1\"]]]},\n\t{pcp: 7, name: \"avb-56\", packetFilter: \"*-avb-56-*\", source: \"es_6\", destination: \"es_5\", trees: [[[\"es_6\", \"s_12\", \"s_11\", \"s_10\", \"s_9\", \"es_5\"]], [[\"es_6\", \"s_12\", \"s_8\", \"s_7\", \"s_6\", \"s_5\", \"s_9\", \"es_5\"]]]},\n\t{pcp: 7, name: \"avb-57\", packetFilter: \"*-avb-57-*\", source: \"es_6\", destination: \"es_1\", trees: [[[\"es_6\", \"s_12\", \"s_11\", \"s_10\", \"s_6\", \"s_5\", \"s_1\", \"es_1\"]], [[\"es_6\", \"s_12\", \"s_8\", \"s_4\", \"s_3\", \"s_2\", \"s_1\", \"es_1\"]]]},\n\t{pcp: 7, name: \"avb-58\", packetFilter: \"*-avb-58-*\", source: \"es_4\", destination: \"es_5\", trees: [[[\"es_4\", \"s_8\", \"s_4\", \"s_3\", \"s_2\", \"s_1\", \"s_5\", \"s_9\", \"es_5\"]], [[\"es_4\", \"s_8\", \"s_12\", \"s_11\", \"s_10\", \"s_9\", \"es_5\"]]]},\n\t{pcp: 7, name: \"avb-59\", packetFilter: \"*-avb-59-*\", source: \"es_4\", destination: \"es_6\", trees: [[[\"es_4\", \"s_8\", \"s_7\", \"s_11\", \"s_12\", \"es_6\"]], [[\"es_4\", \"s_8\", \"s_12\", \"es_6\"]]]}]"
config *.gateScheduleConfigurator.typename r438Configurator
config *.gateScheduleConfigurator.gateCycleDuration 2000us

vector 0 partial_mesh.es_1.ethg$o[0].channel busy:vector ETV
attr interpolationmode sample-hold
attr recordingmode vector
attr source channelBusy
vector 1 partial_mesh.s_1.ethg$o[0].channel busy:vector ETV
attr interpolationmode sample-hold
attr recordingmode vector
attr source channelBusy
vector 2 partial_mesh.s_1.ethg$o[1].channel busy:vector ETV
attr interpolationmode sample-hold
attr recordingmode vector
attr source channelBusy
vector 3 partial_mesh.s_2.ethg$o[0].channel busy:vector ETV
attr interpolationmode sample-hold
attr recordingmode vector
attr source channelBusy
vector 4 partial_mesh.s_2.ethg$o[1].channel busy:vector ETV
attr interpolationmode sample-hold
attr recordingmode vector
attr source channelBusy
vector 5 partial_mesh.s_3.ethg$o[0].channel busy:vector ETV
attr interpolationmode sample-hold
attr recordingmode vector
attr source channelBusy
vector 6 partial_mesh.s_3.ethg$o[1].channel busy:vector ETV
attr interpolationmode sample-hold
attr recordingmode vector
attr source channelBusy
vector 7 partial_mesh.s_4.ethg$o[0].channel busy:vector ETV
attr interpolationmode sample-hold
attr recordingmode vector
attr source channelBusy
vector 8 partial_mesh.s_4.ethg$o[1].channel busy:vector ETV
attr interpolationmode sample-hold
attr recordingmode vector
attr source channelBusy
vector 9 partial_mesh.es_2.ethg$o[0].channel busy:vector ETV
attr interpolationmode sample-hold
attr recordingmode vector
attr source channelBusy
vector 10 partial_mesh.es_3.ethg$o[0].channel busy:vector ETV
attr interpolationmode sample-hold
attr recordingmode vector
attr source channelBusy
vector 11 partial_mesh.s_5.ethg$o[0].channel busy:vector ETV
attr interpolationmode sample-hold
attr recordingmode vector
attr source channelBusy
vector 12 partial_mesh.s_5.ethg$o[1].channel busy:vector ETV
attr interpolationmode sample-hold
attr recordingmode vector
attr source channelBusy
vector 13 partial_mesh.s_6.ethg$o[0].channel busy:vector ETV
attr interpolationmode sample-hold
attr recordingmode vector
attr source channelBusy
vector 14 partial_mesh.s_6.ethg$o[1].channel busy:vector ETV
attr interpolationmode sample-hold
attr recordingmode vector
attr source channelBusy
vector 15 partial_mesh.s_7.ethg$o[0].channel busy:vector ETV
attr interpolationmode sample-hold
attr recordingmode vector
attr source channelBusy
vector 16 partial_mesh.s_7.ethg$o[1].channel busy:vector ETV
attr interpolationmode sample-hold
attr recordingmode vector
attr source channelBusy
vector 17 partial_mesh.s_8.ethg$o[0].channel busy:vector ETV
attr interpolationmode sample-hold
attr recordingmode vector
attr source channelBusy
vector 18 partial_mesh.s_8.ethg$o[1].channel busy:vector ETV
attr interpolationmode sample-hold
attr recordingmode vector
attr source channelBusy
vector 19 partial_mesh.es_4.ethg$o[0].channel busy:vector ETV
attr interpolationmode sample-hold
attr recordingmode vector
attr source channelBusy
vector 20 partial_mesh.es_5.ethg$o[0].channel busy:vector ETV
attr interpolationmode sample-hold
attr recordingmode vector
attr source channelBusy
vector 21 partial_mesh.s_9.ethg$o[0].channel busy:vector ETV
attr interpolationmode sample-hold
attr recordingmode vector
attr source channelBusy
vector 22 partial_mesh.s_9.ethg$o[1].channel busy:vector ETV
attr interpolationmode sample-hold
attr recordingmode vector
attr source channelBusy
vector 23 partial_mesh.s_10.ethg$o[0].channel busy:vector ETV
attr interpolationmode sample-hold
attr recordingmode vector
attr source channelBusy
vector 24 partial_mesh.s_10.ethg$o[1].channel busy:vector ETV
attr interpolationmode sample-hold
attr recordingmode vector
attr source channelBusy
vector 25 partial_mesh.s_11.ethg$o[0].channel busy:vector ETV
attr interpolationmode sample-hold
attr recordingmode vector
attr source channelBusy
vector 26 partial_mesh.s_11.ethg$o[1].channel busy:vector ETV
attr interpolationmode sample-hold
attr recordingmode vector
attr source channelBusy
vector 27 partial_mesh.s_12.ethg$o[0].channel busy:vector ETV
attr interpolationmode sample-hold
attr recordingmode vector
attr source channelBusy
vector 28 partial_mesh.s_12.ethg$o[1].channel busy:vector ETV
attr interpolationmode sample-hold
attr recordingmode vector
attr source channelBusy
vector 29 partial_mesh.es_6.ethg$o[0].channel busy:vector ETV
attr interpolationmode sample-hold
attr recordingmode vector
attr source channelBusy
vector 30 partial_mesh.s_1.ethg$o[2].channel busy:vector ETV
attr interpolationmode sample-hold
attr recordingmode vector
attr source channelBusy
vector 31 partial_mesh.s_5.ethg$o[2].channel busy:vector ETV
attr interpolationmode sample-hold
attr recordingmode vector
attr source channelBusy
vector 32 partial_mesh.s_5.ethg$o[3].channel busy:vector ETV
attr interpolationmode sample-hold
attr recordingmode vector
attr source channelBusy
vector 33 partial_mesh.s_9.ethg$o[2].channel busy:vector ETV
attr interpolationmode sample-hold
attr recordingmode vector
attr source channelBusy
vector 34 partial_mesh.s_2.ethg$o[2].channel busy:vector ETV
attr interpolationmode sample-hold
attr recordingmode vector
attr source channelBusy
vector 35 partial_mesh.s_6.ethg$o[2].channel busy:vector ETV
attr interpolationmode sample-hold
attr recordingmode vector
attr source channelBusy
vector 36 partial_mesh.s_6.ethg$o[3].channel busy:vector ETV
attr interpolationmode sample-hold
attr recordingmode vector
attr source channelBusy
vector 37 partial_mesh.s_10.ethg$o[2].channel busy:vector ETV
attr interpolationmode sample-hold
attr recordingmode vector
attr source channelBusy
vector 38 partial_mesh.s_3.ethg$o[2].channel busy:vector ETV
attr interpolationmode sample-hold
attr recordingmode vector
attr source channelBusy
vector 39 partial_mesh.s_7.ethg$o[2].channel busy:vector ETV
attr interpolationmode sample-hold
attr recordingmode vector
attr source channelBusy
vector 40 partial_mesh.s_7.ethg$o[3].channel busy:vector ETV
attr interpolationmode sample-hold
attr recordingmode vector
attr source channelBusy
vector 41 partial_mesh.s_11.ethg$o[2].channel busy:vector ETV
attr interpolationmode sample-hold
attr recordingmode vector
attr source channelBusy
vector 42 partial_mesh.s_4.ethg$o[2].channel busy:vector ETV
attr interpolationmode sample-hold
attr recordingmode vector
attr source channelBusy
vector 43 partial_mesh.s_8.ethg$o[2].channel busy:vector ETV
attr interpolationmode sample-hold
attr recordingmode vector
attr source channelBusy
vector 44 partial_mesh.s_8.ethg$o[3].channel busy:vector ETV
attr interpolationmode sample-hold
attr recordingmode vector
attr source channelBusy
vector 45 partial_mesh.s_12.ethg$o[2].channel busy:vector ETV
attr interpolationmode sample-hold
attr recordingmode vector
attr source channelBusy
vector 46 partial_mesh.es_1.eth[0].phyLayer.transmitter transmitting:vector ETV
attr interpolationmode sample-hold
attr recordingmode vector
attr source "count(transmissionStarted) - count(transmissionEnded)"
attr title "transmitting state"
attr type int
vector 47 partial_mesh.es_1.udp passedUpPk:vector(count) ETV
attr interpolationmode none
attr recordingmode vector(count)
attr source packetSentToUpper
attr title "packets passed up, count"
vector 48 partial_mesh.es_1.udp droppedPkWrongPort:vector(count) ETV
attr interpolationmode none
attr recordingmode vector(count)
attr source packetDropReasonIsNoPortFound(packetDropped)
attr title "packets dropped (wrong port), count"
vector 49 partial_mesh.es_1.udp droppedPkBadChecksum:vector(count) ETV
attr interpolationmode none
attr recordingmode vector(count)
attr source packetDropReasonIsIncorrectlyReceived(packetDropped)
attr title "packets dropped (checksum error), count"
vector 50 partial_mesh.es_2.eth[0].phyLayer.transmitter transmitting:vector ETV
attr interpolationmode sample-hold
attr recordingmode vector
attr source "count(transmissionStarted) - count(transmissionEnded)"
attr title "transmitting state"
attr type int
vector 51 partial_mesh.es_2.udp passedUpPk:vector(count) ETV
attr interpolationmode none
attr recordingmode vector(count)
attr source packetSentToUpper
attr title "packets passed up, count"
vector 52 partial_mesh.es_2.udp droppedPkWrongPort:vector(count) ETV
attr interpolationmode none
attr recordingmode vector(count)
attr source packetDropReasonIsNoPortFound(packetDropped)
attr title "packets dropped (wrong port), count"
vector 53 partial_mesh.es_2.udp droppedPkBadChecksum:vector(count) ETV
attr interpolationmode none
attr recordingmode vector(count)
attr source packetDropReasonIsIncorrectlyReceived(packetDropped)
attr title "packets dropped (checksum error), count"
vector 54 partial_mesh.es_3.eth[0].phyLayer.transmitter transmitting:vector ETV
attr interpolationmode sample-hold
attr recordingmode vector
attr source "count(transmissionStarted) - count(transmissionEnded)"
attr title "transmitting state"
attr type int
vector 55 partial_mesh.es_3.udp passedUpPk:vector(count) ETV
attr interpolationmode none
attr recordingmode vector(count)
attr source packetSentToUpper
attr title "packets passed up, count"
vector 56 partial_mesh.es_3.udp droppedPkWrongPort:vector(count) ETV
attr interpolationmode none
attr recordingmode vector(count)
attr source packetDropReasonIsNoPortFound(packetDropped)
attr title "packets dropped (wrong port), count"
vector 57 partial_mesh.es_3.udp droppedPkBadChecksum:vector(count) ETV
attr interpolationmode none
attr recordingmode vector(count)
attr source packetDropReasonIsIncorrectlyReceived(packetDropped)
attr title "packets dropped (checksum error), count"
vector 58 partial_mesh.es_4.eth[0].phyLayer.transmitter transmitting:vector ETV
attr interpolationmode sample-hold
attr recordingmode vector
attr source "count(transmissionStarted) - count(transmissionEnded)"
attr title "transmitting state"
attr type int
vector 59 partial_mesh.es_4.udp passedUpPk:vector(count) ETV
attr interpolationmode none
attr recordingmode vector(count)
attr source packetSentToUpper
attr title "packets passed up, count"
vector 60 partial_mesh.es_4.udp droppedPkWrongPort:vector(count) ETV
attr interpolationmode none
attr recordingmode vector(count)
attr source packetDropReasonIsNoPortFound(packetDropped)
attr title "packets dropped (wrong port), count"
vector 61 partial_mesh.es_4.udp droppedPkBadChecksum:vector(count) ETV
attr interpolationmode none
attr recordingmode vector(count)
attr source packetDropReasonIsIncorrectlyReceived(packetDropped)
attr title "packets dropped (checksum error), count"
vector 62 partial_mesh.es_5.eth[0].phyLayer.transmitter transmitting:vector ETV
attr interpolationmode sample-hold
attr recordingmode vector
attr source "count(transmissionStarted) - count(transmissionEnded)"
attr title "transmitting state"
attr type int
vector 63 partial_mesh.es_5.udp passedUpPk:vector(count) ETV
attr interpolationmode none
attr recordingmode vector(count)
attr source packetSentToUpper
attr title "packets passed up, count"
vector 64 partial_mesh.es_5.udp droppedPkWrongPort:vector(count) ETV
attr interpolationmode none
attr recordingmode vector(count)
attr source packetDropReasonIsNoPortFound(packetDropped)
attr title "packets dropped (wrong port), count"
vector 65 partial_mesh.es_5.udp droppedPkBadChecksum:vector(count) ETV
attr interpolationmode none
attr recordingmode vector(count)
attr source packetDropReasonIsIncorrectlyReceived(packetDropped)
attr title "packets dropped (checksum error), count"
vector 66 partial_mesh.es_6.eth[0].phyLayer.transmitter transmitting:vector ETV
attr interpolationmode sample-hold
attr recordingmode vector
attr source "count(transmissionStarted) - count(transmissionEnded)"
attr title "transmitting state"
attr type int
vector 67 partial_mesh.es_6.udp passedUpPk:vector(count) ETV
attr interpolationmode none
attr recordingmode vector(count)
attr source packetSentToUpper
attr title "packets passed up, count"
vector 68 partial_mesh.es_6.udp droppedPkWrongPort:vector(count) ETV
attr interpolationmode none
attr recordingmode vector(count)
attr source packetDropReasonIsNoPortFound(packetDropped)
attr title "packets dropped (wrong port), count"
vector 69 partial_mesh.es_6.udp droppedPkBadChecksum:vector(count) ETV
attr interpolationmode none
attr recordingmode vector(count)
attr source packetDropReasonIsIncorrectlyReceived(packetDropped)
attr title "packets dropped (checksum error), count"
vector 70 partial_mesh.s_1.eth[0].phyLayer.transmitter transmitting:vector ETV
attr interpolationmode sample-hold
attr recordingmode vector
attr source "count(transmissionStarted) - count(transmissionEnded)"
attr title "transmitting state"
attr type int
vector 71 partial_mesh.s_1.eth[1].phyLayer.transmitter transmitting:vector ETV
attr interpolationmode sample-hold
attr recordingmode vector
attr source "count(transmissionStarted) - count(transmissionEnded)"
attr title "transmitting state"
attr type int
vector 72 partial_mesh.s_1.eth[2].phyLayer.transmitter transmitting:vector ETV
attr interpolationmode sample-hold
attr recordingmode vector
attr source "count(transmissionStarted) - count(transmissionEnded)"
attr title "transmitting state"
attr type int
vector 73 partial_mesh.s_2.eth[0].phyLayer.transmitter transmitting:vector ETV
attr interpolationmode sample-hold
attr recordingmode vector
attr source "count(transmissionStarted) - count(transmissionEnded)"
attr title "transmitting state"
attr type int
vector 74 partial_mesh.s_2.eth[1].phyLayer.transmitter transmitting:vector ETV
attr interpolationmode sample-hold
attr recordingmode vector
attr source "count(transmissionStarted) - count(transmissionEnded)"
attr title "transmitting state"
attr type int
vector 75 partial_mesh.s_2.eth[2].phyLayer.transmitter transmitting:vector ETV
attr interpolationmode sample-hold
attr recordingmode vector
attr source "count(transmissionStarted) - count(transmissionEnded)"
attr title "transmitting state"
attr type int
vector 76 partial_mesh.s_3.eth[0].phyLayer.transmitter transmitting:vector ETV
attr interpolationmode sample-hold
attr recordingmode vector
attr source "count(transmissionStarted) - count(transmissionEnded)"
attr title "transmitting state"
attr type int
vector 77 partial_mesh.s_3.eth[1].phyLayer.transmitter transmitting:vector ETV
attr interpolationmode sample-hold
attr recordingmode vector
attr source "count(transmissionStarted) - count(transmissionEnded)"
attr title "transmitting state"
attr type int
vector 78 partial_mesh.s_3.eth[2].phyLayer.transmitter transmitting:vector ETV
attr interpolationmode sample-hold
attr recordingmode vector
attr source "count(transmissionStarted) - count(transmissionEnded)"
attr title "transmitting state"
attr type int
vector 79 partial_mesh.s_4.eth[0].phyLayer.transmitter transmitting:vector ETV
attr interpolationmode sample-hold
attr recordingmode vector
attr source "count(transmissionStarted) - count(transmissionEnded)"
attr title "transmitting state"
attr type int
vector 80 partial_mesh.s_4.eth[1].phyLayer.transmitter transmitting:vector ETV
attr interpolationmode sample-hold
attr recordingmode vector
attr source "count(transmissionStarted) - count(transmissionEnded)"
attr title "transmitting state"
attr type int
vector 81 partial_mesh.s_4.eth[2].phyLayer.transmitter transmitting:vector ETV
attr interpolationmode sample-hold
attr recordingmode vector
attr source "count(transmissionStarted) - count(transmissionEnded)"
attr title "transmitting state"
attr type int
vector 82 partial_mesh.s_5.eth[0].phyLayer.transmitter transmitting:vector ETV
attr interpolationmode sample-hold
attr recordingmode vector
attr source "count(transmissionStarted) - count(transmissionEnded)"
attr title "transmitting state"
attr type int
vector 83 partial_mesh.s_5.eth[1].phyLayer.transmitter transmitting:vector ETV
attr interpolationmode sample-hold
attr recordingmode vector
attr source "count(transmissionStarted) - count(transmissionEnded)"
attr title "transmitting state"
attr type int
vector 84 partial_mesh.s_5.eth[2].phyLayer.transmitter transmitting:vector ETV
attr interpolationmode sample-hold
attr recordingmode vector
attr source "count(transmissionStarted) - count(transmissionEnded)"
attr title "transmitting state"
attr type int
vector 85 partial_mesh.s_5.eth[3].phyLayer.transmitter transmitting:vector ETV
attr interpolationmode sample-hold
attr recordingmode vector
attr source "count(transmissionStarted) - count(transmissionEnded)"
attr title "transmitting state"
attr type int
vector 86 partial_mesh.s_6.eth[0].phyLayer.transmitter transmitting:vector ETV
attr interpolationmode sample-hold
attr recordingmode vector
attr source "count(transmissionStarted) - count(transmissionEnded)"
attr title "transmitting state"
attr type int
vector 87 partial_mesh.s_6.eth[1].phyLayer.transmitter transmitting:vector ETV
attr interpolationmode sample-hold
attr recordingmode vector
attr source "count(transmissionStarted) - count(transmissionEnded)"
attr title "transmitting state"
attr type int
vector 88 partial_mesh.s_6.eth[2].phyLayer.transmitter transmitting:vector ETV
attr interpolationmode sample-hold
attr recordingmode vector
attr source "count(transmissionStarted) - count(transmissionEnded)"
attr title "transmitting state"
attr type int
vector 89 partial_mesh.s_6.eth[3].phyLayer.transmitter transmitting:vector ETV
attr interpolationmode sample-hold
attr recordingmode vector
attr source "count(transmissionStarted) - count(transmissionEnded)"
attr title "transmitting state"
attr type int
vector 90 partial_mesh.s_7.eth[0].phyLayer.transmitter transmitting:vector ETV
attr interpolationmode sample-hold
attr recordingmode vector
attr source "count(transmissionStarted) - count(transmissionEnded)"
attr title "transmitting state"
attr type int
vector 91 partial_mesh.s_7.eth[1].phyLayer.transmitter transmitting:vector ETV
attr interpolationmode sample-hold
attr recordingmode vector
attr source "count(transmissionStarted) - count(transmissionEnded)"
attr title "transmitting state"
attr type int
vector 92 partial_mesh.s_7.eth[2].phyLayer.transmitter transmitting:vector ETV
attr interpolationmode sample-hold
attr recordingmode vector
attr source "count(transmissionStarted) - count(transmissionEnded)"
attr title "transmitting state"
attr type int
vector 93 partial_mesh.s_7.eth[3].phyLayer.transmitter transmitting:vector ETV
attr interpolationmode sample-hold
attr recordingmode vector
attr source "count(transmissionStarted) - count(transmissionEnded)"
attr title "transmitting state"
attr type int
vector 94 partial_mesh.s_8.eth[0].phyLayer.transmitter transmitting:vector ETV
attr interpolationmode sample-hold
attr recordingmode vector
attr source "count(transmissionStarted) - count(transmissionEnded)"
attr title "transmitting state"
attr type int
vector 95 partial_mesh.s_8.eth[1].phyLayer.transmitter transmitting:vector ETV
attr interpolationmode sample-hold
attr recordingmode vector
attr source "count(transmissionStarted) - count(transmissionEnded)"
attr title "transmitting state"
attr type int
vector 96 partial_mesh.s_8.eth[2].phyLayer.transmitter transmitting:vector ETV
attr interpolationmode sample-hold
attr recordingmode vector
attr source "count(transmissionStarted) - count(transmissionEnded)"
attr title "transmitting state"
attr type int
vector 97 partial_mesh.s_8.eth[3].phyLayer.transmitter transmitting:vector ETV
attr interpolationmode sample-hold
attr recordingmode vector
attr source "count(transmissionStarted) - count(transmissionEnded)"
attr title "transmitting state"
attr type int
vector 98 partial_mesh.s_9.eth[0].phyLayer.transmitter transmitting:vector ETV
attr interpolationmode sample-hold
attr recordingmode vector
attr source "count(transmissionStarted) - count(transmissionEnded)"
attr title "transmitting state"
attr type int
vector 99 partial_mesh.s_9.eth[1].phyLayer.transmitter transmitting:vector ETV
attr interpolationmode sample-hold
attr recordingmode vector
attr source "count(transmissionStarted) - count(transmissionEnded)"
attr title "transmitting state"
attr type int
vector 100 partial_mesh.s_9.eth[2].phyLayer.transmitter transmitting:vector ETV
attr interpolationmode sample-hold
attr recordingmode vector
attr source "count(transmissionStarted) - count(transmissionEnded)"
attr title "transmitting state"
attr type int
vector 101 partial_mesh.s_10.eth[0].phyLayer.transmitter transmitting:vector ETV
attr interpolationmode sample-hold
attr recordingmode vector
attr source "count(transmissionStarted) - count(transmissionEnded)"
attr title "transmitting state"
attr type int
vector 102 partial_mesh.s_10.eth[1].phyLayer.transmitter transmitting:vector ETV
attr interpolationmode sample-hold
attr recordingmode vector
attr source "count(transmissionStarted) - count(transmissionEnded)"
attr title "transmitting state"
attr type int
vector 103 partial_mesh.s_10.eth[2].phyLayer.transmitter transmitting:vector ETV
attr interpolationmode sample-hold
attr recordingmode vector
attr source "count(transmissionStarted) - count(transmissionEnded)"
attr title "transmitting state"
attr type int
vector 104 partial_mesh.s_11.eth[0].phyLayer.transmitter transmitting:vector ETV
attr interpolationmode sample-hold
attr recordingmode vector
attr source "count(transmissionStarted) - count(transmissionEnded)"
attr title "transmitting state"
attr type int
vector 105 partial_mesh.s_11.eth[1].phyLayer.transmitter transmitting:vector ETV
attr interpolationmode sample-hold
attr recordingmode vector
attr source "count(transmissionStarted) - count(transmissionEnded)"
attr title "transmitting state"
attr type int
vector 106 partial_mesh.s_11.eth[2].phyLayer.transmitter transmitting:vector ETV
attr interpolationmode sample-hold
attr recordingmode vector
attr source "count(transmissionStarted) - count(transmissionEnded)"
attr title "transmitting state"
attr type int
vector 107 partial_mesh.s_12.eth[0].phyLayer.transmitter transmitting:vector ETV
attr interpolationmode sample-hold
attr recordingmode vector
attr source "count(transmissionStarted) - count(transmissionEnded)"
attr title "transmitting state"
attr type int
vector 108 partial_mesh.s_12.eth[1].phyLayer.transmitter transmitting:vector ETV
attr interpolationmode sample-hold
attr recordingmode vector
attr source "count(transmissionStarted) - count(transmissionEnded)"
attr title "transmitting state"
attr type int
vector 109 partial_mesh.s_12.eth[2].phyLayer.transmitter transmitting:vector ETV
attr interpolationmode sample-hold
attr recordingmode vector
attr source "count(transmissionStarted) - count(transmissionEnded)"
attr title "transmitting state"
attr type int
vector 110 partial_mesh.es_1.app[0].source packetLengths:vector ETV
attr interpolationmode none
attr moduledisplaypath partial_mesh.es_1.tsn-4.source
attr recordingmode vector
attr source packetLength(packetPushed)
attr title "packet lengths"
attr unit b
vector 111 partial_mesh.es_1.app[13].source packetLengths:vector ETV
attr interpolationmode none
attr moduledisplaypath partial_mesh.es_1.avb-48.source
attr recordingmode vector
attr source packetLength(packetPushed)
attr title "packet lengths"
attr unit b
vector 112 partial_mesh.es_1.app[15].source packetLengths:vector ETV
attr interpolationmode none
attr moduledisplaypath partial_mesh.es_1.avb-53.source
attr recordingmode vector
attr source packetLength(packetPushed)
attr title "packet lengths"
attr unit b
vector 113 partial_mesh.es_2.app[4].source packetLengths:vector ETV
attr interpolationmode none
attr moduledisplaypath partial_mesh.es_2.tsn-11.source
attr recordingmode vector
attr source packetLength(packetPushed)
attr title "packet lengths"
attr unit b
vector 114 partial_mesh.es_2.app[14].source packetLengths:vector ETV
attr interpolationmode none
attr moduledisplaypath partial_mesh.es_2.avb-42.source
attr recordingmode vector
attr source packetLength(packetPushed)
attr title "packet lengths"
attr unit b
vector 115 partial_mesh.es_2.app[17].source packetLengths:vector ETV
attr interpolationmode none
attr moduledisplaypath partial_mesh.es_2.avb-50.source
attr recordingmode vector
attr source packetLength(packetPushed)
attr title "packet lengths"
attr unit b
vector 116 partial_mesh.es_3.app[16].source packetLengths:vector ETV
attr interpolationmode none
attr moduledisplaypath partial_mesh.es_3.tsn-35.source
attr recordingmode vector
attr source packetLength(packetPushed)
attr title "packet lengths"
attr unit b
vector 117 partial_mesh.es_3.app[18].source packetLengths:vector ETV
attr interpolationmode none
attr moduledisplaypath partial_mesh.es_3.avb-43.source
attr recordingmode vector
attr source packetLength(packetPushed)
attr title "packet lengths"
attr unit b
vector 118 partial_mesh.es_3.app[19].source packetLengths:vector ETV
attr interpolationmode none
attr moduledisplaypath partial_mesh.es_3.avb-49.source
attr recordingmode vector
attr source packetLength(packetPushed)
[...]
5017	6286862 19 16698 16698 0.001 0.001 1 0 0 0 0
5018	6286881 19 16698 16698 0.001 0.001 1 0 0 0 0
5019	6286900 19 16698 16698 0.001 0.001 1 0 0 0 0
5020	6286919 19 16698 16698 0.001 0.001 1 0 0 0 0
5021	6286938 27 16698 16698 0.001 0.001 1 224896000 224896000 224896000 5.0578210816e+16
5022	6286965 25 16698 16698 0.001 0.001 1 6976000 6976000 6976000 48664576000000
5023	6286990 25 16698 16698 0.001 0.001 1 6976000 6976000 6976000 48664576000000
5024	6287015 25 16698 16698 0.001 0.001 1 1856000 1856000 1856000 3444736000000
5025	6287040 25 16698 16698 0.001 0.001 1 1856000 1856000 1856000 3444736000000
5026	6287065 19 16698 16698 0.001 0.001 1 0 0 0 0
5027	6287084 19 16698 16698 0.001 0.001 1 0 0 0 0
5028	6287103 19 16698 16698 0.001 0.001 1 0 0 0 0
5029	6287122 19 16698 16698 0.001 0.001 1 0 0 0 0
5030	6287141 19 16698 16698 0.001 0.001 1 0 0 0 0
5031	6287160 19 16698 16698 0.001 0.001 1 0 0 0 0
5032	6287179 19 16698 16698 0.001 0.001 1 0 0 0 0
5033	6287198 19 16698 16698 0.001 0.001 1 0 0 0 0
5034	6287217 19 16698 16698 0.001 0.001 1 0 0 0 0
5035	6287236 19 16698 16698 0.001 0.001 1 0 0 0 0
5036	6287255 27 16698 16698 0.001 0.001 1 216064000 216064000 216064000 4.6683652096e+16
5037	6287282 27 16698 16698 0.001 0.001 1 216064000 216064000 216064000 4.6683652096e+16
5038	6287309 27 16698 16698 0.001 0.001 1 224896000 224896000 224896000 5.0578210816e+16
5039	6287336 27 16698 16698 0.001 0.001 1 224896000 224896000 224896000 5.0578210816e+16
5040	6287363 27 16698 16698 0.001 0.001 1 224896000 224896000 224896000 5.0578210816e+16
5041	6287390 19 16698 16698 0.001 0.001 1 0 0 0 0
5042	6287409 27 16698 16698 0.001 0.001 1 227008000 227008000 227008000 5.1532632064e+16
5043	6287436 19 16698 16698 0.001 0.001 1 0 0 0 0
5044	6287455 27 16698 16698 0.001 0.001 1 246592000 246592000 246592000 6.0807614464e+16
5045	6287482 27 16698 16698 0.001 0.001 1 355856000 355856000 355856000 1.26633492736e+17
5046	6287509 26 16698 16698 0.001 0.001 1 14448000 14448000 14448000 2.08744704e+14
5047	6287535 26 16698 16698 0.001 0.001 1 14448000 14448000 14448000 2.08744704e+14
5048	6287561 26 16698 16698 0.001 0.001 1 10656000 10656000 10656000 1.13550336e+14
5049	6287587 26 16698 16698 0.001 0.001 1 10656000 10656000 10656000 1.13550336e+14
5050	6287613 19 16698 16698 0.001 0.001 1 0 0 0 0
5051	6287632 19 16698 16698 0.001 0.001 1 0 0 0 0
5052	6287651 19 16698 16698 0.001 0.001 1 0 0 0 0
5053	6287670 19 16698 16698 0.001 0.001 1 0 0 0 0
5054	6287689 19 16698 16698 0.001 0.001 1 0 0 0 0
5055	6287708 19 16698 16698 0.001 0.001 1 0 0 0 0
5056	6287727 19 16698 16698 0.001 0.001 1 0 0 0 0
5057	6287746 19 16698 16698 0.001 0.001 1 0 0 0 0
5058	6287765 19 16698 16698 0.001 0.001 1 0 0 0 0
5059	6287784 19 16698 16698 0.001 0.001 1 0 0 0 0
5060	6287803 27 16698 16698 0.001 0.001 1 330752000 330752000 330752000 1.09396885504e+17
5061	6287830 27 16698 16698 0.001 0.001 1 330752000 330752000 330752000 1.09396885504e+17
5062	6287857 27 16698 16698 0.001 0.001 1 355856000 355856000 355856000 1.26633492736e+17
5063	6287884 27 16698 16698 0.001 0.001 1 355856000 355856000 355856000 1.26633492736e+17
5064	6287911 27 16698 16698 0.001 0.001 1 355856000 355856000 355856000 1.26633492736e+17
5065	6287938 19 16698 16698 0.001 0.001 1 0 0 0 0
5066	6287957 27 16698 16698 0.001 0.001 1 359696000 359696000 359696000 1.29381212416e+17
5067	6287984 19 16698 16698 0.001 0.001 1 0 0 0 0
5068	6288003 27 16698 16698 0.001 0.001 1 340704000 340704000 340704000 1.16079215616e+17
5069	6288030 27 16698 16698 0.001 0.001 1 357552000 357552000 357552000 1.27843432704e+17
5070	6288057 26 16698 16698 0.001 0.001 1 17712000 17712000 17712000 3.13714944e+14
5071	6288083 26 16698 16698 0.001 0.001 1 17712000 17712000 17712000 3.13714944e+14
5072	6288109 25 16698 16698 0.001 0.001 1 8240000 8240000 8240000 67897600000000
5073	6288134 25 16698 16698 0.001 0.001 1 9088000 9088000 9088000 82591744000000
5074	6288159 19 16698 16698 0.001 0.001 1 0 0 0 0
5075	6288178 19 16698 16698 0.001 0.001 1 0 0 0 0
5076	6288197 19 16698 16698 0.001 0.001 1 0 0 0 0
5077	6288216 19 16698 16698 0.001 0.001 1 0 0 0 0
5078	6288235 19 16698 16698 0.001 0.001 1 0 0 0 0
5079	6288254 19 16698 16698 0.001 0.001 1 0 0 0 0
5080	6288273 19 16698 16698 0.001 0.001 1 0 0 0 0
5081	6288292 19 16698 16698 0.001 0.001 1 0 0 0 0
5082	6288311 19 16698 16698 0.001 0.001 1 0 0 0 0
5083	6288330 19 16698 16698 0.001 0.001 1 0 0 0 0
5084	6288349 27 16698 16698 0.001 0.001 1 330752000 330752000 330752000 1.09396885504e+17
5085	6288376 27 16698 16698 0.001 0.001 1 330752000 330752000 330752000 1.09396885504e+17
5086	6288403 27 16698 16698 0.001 0.001 1 356704000 356704000 356704000 1.27237743616e+17
5087	6288430 27 16698 16698 0.001 0.001 1 356704000 356704000 356704000 1.27237743616e+17
5088	6288457 27 16698 16698 0.001 0.001 1 356704000 356704000 356704000 1.27237743616e+17
5089	6288484 19 16698 16698 0.001 0.001 1 0 0 0 0
5090	6288503 27 16698 16698 0.001 0.001 1 360608000 360608000 360608000 1.30038129664e+17
5091	6288530 19 16698 16698 0.001 0.001 1 0 0 0 0
5092	6288549 27 16698 16698 0.001 0.001 1 329712000 329712000 329712000 1.08710002944e+17
5093	6288576 19 16698 16698 0.001 0.001 1 0 0 0 0
5094	6288595 19 16698 16698 0.001 0.001 1 0 0 0 0
5095	6288614 19 16698 16698 0.001 0.001 1 0 0 0 0
5096	6288633 19 16698 16698 0.001 0.001 1 0 0 0 0
5097	6288652 19 16698 16698 0.001 0.001 1 0 0 0 0
5098	6288671 27 16698 16698 0.001 0.001 1 337936000 337936000 337936000 1.14200740096e+17
5099	6288698 26 16698 16698 0.001 0.001 1 23840000 23840000 23840000 5.683456e+14
5100	6288724 26 16698 16698 0.001 0.001 1 24848000 24848000 24848000 6.17423104e+14
5101	6288750 25 16698 16698 0.001 0.001 1 1536000 1536000 1536000 2359296000000
5102	6288775 25 16698 16698 0.001 0.001 1 1536000 1536000 1536000 2359296000000
5103	6288800 19 16698 16698 0.001 0.001 1 0 0 0 0
5104	6288819 19 16698 16698 0.001 0.001 1 0 0 0 0
5105	6288838 19 16698 16698 0.001 0.001 1 0 0 0 0
5106	6288857 19 16698 16698 0.001 0.001 1 0 0 0 0
5107	6288876 19 16698 16698 0.001 0.001 1 0 0 0 0
5108	6288895 19 16698 16698 0.001 0.001 1 0 0 0 0
5109	6288914 19 16698 16698 0.001 0.001 1 0 0 0 0
5110	6288933 19 16698 16698 0.001 0.001 1 0 0 0 0
5111	6288952 19 16698 16698 0.001 0.001 1 0 0 0 0
5112	6288971 19 16698 16698 0.001 0.001 1 0 0 0 0
5113	6288990 27 16698 16698 0.001 0.001 1 311552000 311552000 311552000 9.7064648704e+16
5114	6289017 27 16698 16698 0.001 0.001 1 311552000 311552000 311552000 9.7064648704e+16
5115	6289044 27 16698 16698 0.001 0.001 1 336928000 336928000 336928000 1.13520477184e+17
5116	6289071 27 16698 16698 0.001 0.001 1 336928000 336928000 336928000 1.13520477184e+17
5117	6289098 27 16698 16698 0.001 0.001 1 336928000 336928000 336928000 1.13520477184e+17
5118	6289125 19 16698 16698 0.001 0.001 1 0 0 0 0
5119	6289144 27 16698 16698 0.001 0.001 1 340704000 340704000 340704000 1.16079215616e+17
5120	6289171 19 16698 16698 0.001 0.001 1 0 0 0 0
5121	6289190 27 16698 16698 0.001 0.001 1 359696000 359696000 359696000 1.29381212416e+17
5122	6289217 27 16698 16698 0.001 0.001 1 261152000 261152000 261152000 6.8200367104e+16
5123	6289244 26 16698 16698 0.001 0.001 1 14448000 14448000 14448000 2.08744704e+14
5124	6289270 26 16698 16698 0.001 0.001 1 14448000 14448000 14448000 2.08744704e+14
5125	6289296 25 16698 16698 0.001 0.001 1 5040000 5040000 5040000 25401600000000
5126	6289321 25 16698 16698 0.001 0.001 1 5040000 5040000 5040000 25401600000000
5127	6289346 19 16698 16698 0.001 0.001 1 0 0 0 0
5128	6289365 19 16698 16698 0.001 0.001 1 0 0 0 0
5129	6289384 19 16698 16698 0.001 0.001 1 0 0 0 0
5130	6289403 19 16698 16698 0.001 0.001 1 0 0 0 0
5131	6289422 19 16698 16698 0.001 0.001 1 0 0 0 0
5132	6289441 19 16698 16698 0.001 0.001 1 0 0 0 0
5133	6289460 19 16698 16698 0.001 0.001 1 0 0 0 0
5134	6289479 19 16698 16698 0.001 0.001 1 0 0 0 0
5135	6289498 19 16698 16698 0.001 0.001 1 0 0 0 0
5136	6289517 19 16698 16698 0.001 0.001 1 0 0 0 0
5137	6289536 27 16698 16698 0.001 0.001 1 241664000 241664000 241664000 5.8401488896e+16
5138	6289563 27 16698 16698 0.001 0.001 1 241664000 241664000 241664000 5.8401488896e+16
5139	6289590 27 16698 16698 0.001 0.001 1 261152000 261152000 261152000 6.8200367104e+16
5140	6289617 27 16698 16698 0.001 0.001 1 261152000 261152000 261152000 6.8200367104e+16
5141	6289644 27 16698 16698 0.001 0.001 1 261152000 261152000 261152000 6.8200367104e+16
5142	6289671 19 16698 16698 0.001 0.001 1 0 0 0 0
5143	6289690 27 16698 16698 0.001 0.001 1 264032000 264032000 264032000 6.9712897024e+16
5144	6289717 19 16698 16698 0.001 0.001 1 0 0 0 0
5145	6289736 27 16698 16698 0.001 0.001 1 471184000 471184000 471184000 2.22014361856e+17
5146	6289763 27 16698 16698 0.001 0.001 1 234480000 234480000 234480000 5.49808704e+16
5147	6289790 19 16698 16698 0.001 0.001 1 0 0 0 0
5148	6289809 19 16698 16698 0.001 0.001 1 0 0 0 0
5149	6289828 25 16698 16698 0.001 0.001 1 3920000 3920000 3920000 15366400000000
5150	6289853 25 16698 16698 0.001 0.001 1 5616000 5616000 5616000 31539456000000
5151	6289878 19 16698 16698 0.001 0.001 1 0 0 0 0
5152	6289897 19 16698 16698 0.001 0.001 1 0 0 0 0
5153	6289916 19 16698 16698 0.001 0.001 1 0 0 0 0
5154	6289935 19 16698 16698 0.001 0.001 1 0 0 0 0
5155	6289954 19 16698 16698 0.001 0.001 1 0 0 0 0
5156	6289973 19 16698 16698 0.001 0.001 1 0 0 0 0
5157	6289992 19 16698 16698 0.001 0.001 1 0 0 0 0
5158	6290011 19 16698 16698 0.001 0.001 1 0 0 0 0
5159	6290030 19 16698 16698 0.001 0.001 1 0 0 0 0
5160	6290049 19 16698 16698 0.001 0.001 1 0 0 0 0
5161	6290068 27 16698 16698 0.001 0.001 1 228864000 228864000 228864000 5.2378730496e+16
5162	6290095 27 16698 16698 0.001 0.001 1 228864000 228864000 228864000 5.2378730496e+16
5163	6290122 27 16698 16698 0.001 0.001 1 232784000 232784000 232784000 5.4188390656e+16
5164	6290149 27 16698 16698 0.001 0.001 1 232784000 232784000 232784000 5.4188390656e+16
5165	6290176 27 16698 16698 0.001 0.001 1 232784000 232784000 232784000 5.4188390656e+16
5166	6290203 19 16698 16698 0.001 0.001 1 0 0 0 0
5167	6290222 27 16698 16698 0.001 0.001 1 234640000 234640000 234640000 5.50559296e+16
5168	6290249 19 16698 16698 0.001 0.001 1 0 0 0 0
5169	6290268 26 16698 16698 0.001 0.001 1 11392000 11392000 11392000 1.29777664e+14
5170	6290294 19 16698 16698 0.001 0.001 1 0 0 0 0
5171	6290313 19 16698 16698 0.001 0.001 1 0 0 0 0
5172	6290332 19 16698 16698 0.001 0.001 1 0 0 0 0
5173	6290351 19 16698 16698 0.001 0.001 1 0 0 0 0
5174	6290370 19 16698 16698 0.001 0.001 1 0 0 0 0
5175	6290389 27 16698 16698 0.001 0.001 1 470288000 470288000 470288000 2.21170802944e+17
5176	6290416 26 16698 16698 0.001 0.001 1 14848000 14848000 14848000 2.20463104e+14
5177	6290442 26 16698 16698 0.001 0.001 1 15776000 15776000 15776000 2.48882176e+14
5178	6290468 24 16698 16698 0.001 0.001 1 848000 848000 848000 719104000000
5179	6290492 25 16698 16698 0.001 0.001 1 3184000 3184000 3184000 10137856000000
5180	6290517 19 16698 16698 0.001 0.001 1 0 0 0 0
5181	6290536 19 16698 16698 0.001 0.001 1 0 0 0 0
5182	6290555 19 16698 16698 0.001 0.001 1 0 0 0 0
5183	6290574 19 16698 16698 0.001 0.001 1 0 0 0 0
5184	6290593 19 16698 16698 0.001 0.001 1 0 0 0 0
5185	6290612 19 16698 16698 0.001 0.001 1 0 0 0 0
5186	6290631 19 16698 16698 0.001 0.001 1 0 0 0 0
5187	6290650 19 16698 16698 0.001 0.001 1 0 0 0 0
5188	6290669 19 16698 16698 0.001 0.001 1 0 0 0 0
5189	6290688 19 16698 16698 0.001 0.001 1 0 0 0 0
5190	6290707 27 16698 16698 0.001 0.001 1 451328000 451328000 451328000 2.03696963584e+17
5191	6290734 27 16698 16698 0.001 0.001 1 451328000 451328000 451328000 2.03696963584e+17
5192	6290761 27 16698 16698 0.001 0.001 1 467024000 467024000 467024000 2.18111416576e+17
5193	6290788 27 16698 16698 0.001 0.001 1 467024000 467024000 467024000 2.18111416576e+17
5194	6290815 27 16698 16698 0.001 0.001 1 467024000 467024000 467024000 2.18111416576e+17
5195	6290842 19 16698 16698 0.001 0.001 1 0 0 0 0
5196	6290861 27 16698 16698 0.001 0.001 1 471184000 471184000 471184000 2.22014361856e+17
5197	6290888 19 16698 16698 0.001 0.001 1 0 0 0 0
5198	6290907 27 16698 16698 0.001 0.001 1 264032000 264032000 264032000 6.9712897024e+16
5199	6290934 27 16698 16698 0.001 0.001 1 476960000 476960000 476960000 2.274908416e+17
5200	6290961 25 16698 16698 0.001 0.001 1 9808000 9808000 9808000 96196864000000
5201	6290986 25 16698 16698 0.001 0.001 1 9808000 9808000 9808000 96196864000000
5202	6291011 25 16698 16698 0.001 0.001 1 2096000 2096000 2096000 4393216000000
5203	6291036 25 16698 16698 0.001 0.001 1 3024000 3024000 3024000 9144576000000
5204	6291061 19 16698 16698 0.001 0.001 1 0 0 0 0
5205	6291080 19 16698 16698 0.001 0.001 1 0 0 0 0
5206	6291099 19 16698 16698 0.001 0.001 1 0 0 0 0
5207	6291118 19 16698 16698 0.001 0.001 1 0 0 0 0
5208	6291137 19 16698 16698 0.001 0.001 1 0 0 0 0
5209	6291156 19 16698 16698 0.001 0.001 1 0 0 0 0
5210	6291175 19 16698 16698 0.001 0.001 1 0 0 0 0
5211	6291194 19 16698 16698 0.001 0.001 1 0 0 0 0
5212	6291213 19 16698 16698 0.001 0.001 1 0 0 0 0
5213	6291232 19 16698 16698 0.001 0.001 1 0 0 0 0
5214	6291251 27 16698 16698 0.001 0.001 1 464128000 464128000 464128000 2.15414800384e+17
5215	6291278 27 16698 16698 0.001 0.001 1 464128000 464128000 464128000 2.15414800384e+17
5216	6291305 27 16698 16698 0.001 0.001 1 476032000 476032000 476032000 2.26606465024e+17
5217	6291332 27 16698 16698 0.001 0.001 1 476032000 476032000 476032000 2.26606465024e+17
5218	6291359 27 16698 16698 0.001 0.001 1 476032000 476032000 476032000 2.26606465024e+17
5219	6291386 19 16698 16698 0.001 0.001 1 0 0 0 0
5220	6291405 27 16698 16698 0.001 0.001 1 479936000 479936000 479936000 2.30338564096e+17
5221	6291432 19 16698 16698 0.001 0.001 1 0 0 0 0
5222	6291451 26 16698 16698 0.001 0.001 1 36880000 36880000 36880000 1.3601344e+15
5223	6291477 26 16698 16698 0.001 0.001 1 30048000 30048000 30048000 9.02882304e+14
5224	6291503 26 16698 16698 0.001 0.001 1 30048000 30048000 30048000 9.02882304e+14
5225	6291529 25 16698 16698 0.001 0.001 1 6832000 6832000 6832000 46676224000000
5226	6291554 25 16698 16698 0.001 0.001 1 6832000 6832000 6832000 46676224000000
5227	6291579 19 16698 16698 0.001 0.001 1 0 0 0 0
5228	6291598 19 16698 16698 0.001 0.001 1 0 0 0 0
5229	6291617 19 16698 16698 0.001 0.001 1 0 0 0 0
5230	6291636 19 16698 16698 0.001 0.001 1 0 0 0 0
5231	6291655 19 16698 16698 0.001 0.001 1 0 0 0 0
5232	6291674 19 16698 16698 0.001 0.001 1 0 0 0 0
5233	6291693 19 16698 16698 0.001 0.001 1 0 0 0 0
5234	6291712 19 16698 16698 0.001 0.001 1 0 0 0 0
5235	6291731 19 16698 16698 0.001 0.001 1 0 0 0 0
5236	6291750 19 16698 16698 0.001 0.001 1 0 0 0 0
5237	6291769 19 16698 16698 0.001 0.001 1 0 0 0 0
5238	6291788 19 16698 16698 0.001 0.001 1 0 0 0 0
5239	6291807 26 16698 16698 0.001 0.001 1 36880000 36880000 36880000 1.3601344e+15
5240	6291833 26 16698 16698 0.001 0.001 1 36880000 36880000 36880000 1.3601344e+15
5241	6291859 26 16698 16698 0.001 0.001 1 36880000 36880000 36880000 1.3601344e+15
5242	6291885 19 16698 16698 0.001 0.001 1 0 0 0 0
5243	6291904 26 16698 16698 0.001 0.001 1 39760000 39760000 39760000 1.5808576e+15
5244	6291930 19 16698 16698 0.001 0.001 1 0 0 0 0
5245	6291949 27 16698 16698 0.001 0.001 1 228160000 228160000 228160000 5.20569856e+16
5246	6291976 27 16698 16698 0.001 0.001 1 391920000 391920000 391920000 1.536012864e+17
5247	6292003 19 16698 16698 0.001 0.001 1 0 0 0 0
5248	6292022 19 16698 16698 0.001 0.001 1 0 0 0 0
5249	6292041 19 16698 16698 0.001 0.001 1 0 0 0 0
5250	6292060 19 16698 16698 0.001 0.001 1 0 0 0 0
5251	6292079 26 16698 16698 0.001 0.001 1 37344000 37344000 37344000 1.394574336e+15
5252	6292105 26 16698 16698 0.001 0.001 1 37344000 37344000 37344000 1.394574336e+15
5253	6292131 25 16698 16698 0.001 0.001 1 8000000 8000000 8000000 64000000000000
5254	6292156 26 16698 16698 0.001 0.001 1 10064000 10064000 10064000 1.01284096e+14
5255	6292182 19 16698 16698 0.001 0.001 1 0 0 0 0
5256	6292201 19 16698 16698 0.001 0.001 1 0 0 0 0
5257	6292220 19 16698 16698 0.001 0.001 1 0 0 0 0
5258	6292239 19 16698 16698 0.001 0.001 1 0 0 0 0
5259	6292258 19 16698 16698 0.001 0.001 1 0 0 0 0
5260	6292277 19 16698 16698 0.001 0.001 1 0 0 0 0
5261	6292296 19 16698 16698 0.001 0.001 1 0 0 0 0
5262	6292315 19 16698 16698 0.001 0.001 1 0 0 0 0
5263	6292334 19 16698 16698 0.001 0.001 1 0 0 0 0
5264	6292353 19 16698 16698 0.001 0.001 1 0 0 0 0
5265	6292372 27 16698 16698 0.001 0.001 1 451328000 451328000 451328000 2.03696963584e+17
5266	6292399 27 16698 16698 0.001 0.001 1 451328000 451328000 451328000 2.03696963584e+17
5267	6292426 19 16698 16698 0.001 0.001 1 0 0 0 0
5268	6292445 19 16698 16698 0.001 0.001 1 0 0 0 0
5269	6292464 27 16698 16698 0.001 0.001 1 479936000 479936000 479936000 2.30338564096e+17
5270	6292491 27 16698 16698 0.001 0.001 1 404288000 404288000 404288000 1.63448786944e+17
5271	6292518 25 16698 16698 0.001 0.001 1 8880000 8880000 8880000 78854400000000
5272	6292543 25 16698 16698 0.001 0.001 1 8880000 8880000 8880000 78854400000000
5273	6292568 25 16698 16698 0.001 0.001 1 1168000 1168000 1168000 1364224000000
5274	6292593 25 16698 16698 0.001 0.001 1 1168000 1168000 1168000 1364224000000
5275	6292618 19 16698 16698 0.001 0.001 1 0 0 0 0
5276	6292637 19 16698 16698 0.001 0.001 1 0 0 0 0
5277	6292656 19 16698 16698 0.001 0.001 1 0 0 0 0
5278	6292675 19 16698 16698 0.001 0.001 1 0 0 0 0
5279	6292694 19 16698 16698 0.001 0.001 1 0 0 0 0
5280	6292713 19 16698 16698 0.001 0.001 1 0 0 0 0
5281	6292732 19 16698 16698 0.001 0.001 1 0 0 0 0
5282	6292751 19 16698 16698 0.001 0.001 1 0 0 0 0
5283	6292770 19 16698 16698 0.001 0.001 1 0 0 0 0
5284	6292789 19 16698 16698 0.001 0.001 1 0 0 0 0
5285	6292808 27 16698 16698 0.001 0.001 1 394240000 394240000 394240000 1.554251776e+17
5286	6292835 27 16698 16698 0.001 0.001 1 394240000 394240000 394240000 1.554251776e+17
5287	6292862 27 16698 16698 0.001 0.001 1 404288000 404288000 404288000 1.63448786944e+17
5288	6292889 27 16698 16698 0.001 0.001 1 404288000 404288000 404288000 1.63448786944e+17
5289	6292916 27 16698 16698 0.001 0.001 1 404288000 404288000 404288000 1.63448786944e+17
5290	6292943 19 16698 16698 0.001 0.001 1 0 0 0 0
5291	6292962 27 16698 16698 0.001 0.001 1 407552000 407552000 407552000 1.66098632704e+17
5292	6292989 19 16698 16698 0.001 0.001 1 0 0 0 0
5293	6293008 27 16698 16698 0.001 0.001 1 344896000 344896000 344896000 1.18953250816e+17
5294	6293035 27 16698 16698 0.001 0.001 1 411840000 411840000 411840000 1.696121856e+17
5295	6293062 26 16698 16698 0.001 0.001 1 28992000 28992000 28992000 8.40536064e+14
5296	6293088 26 16698 16698 0.001 0.001 1 28992000 28992000 28992000 8.40536064e+14
5297	6293114 25 16698 16698 0.001 0.001 1 7808000 7808000 7808000 60964864000000
5298	6293139 25 16698 16698 0.001 0.001 1 7808000 7808000 7808000 60964864000000
5299	6293164 19 16698 16698 0.001 0.001 1 0 0 0 0
5300	6293183 19 16698 16698 0.001 0.001 1 0 0 0 0
5301	6293202 19 16698 16698 0.001 0.001 1 0 0 0 0
5302	6293221 19 16698 16698 0.001 0.001 1 0 0 0 0
5303	6293240 19 16698 16698 0.001 0.001 1 0 0 0 0
5304	6293259 19 16698 16698 0.001 0.001 1 0 0 0 0
5305	6293278 19 16698 16698 0.001 0.001 1 0 0 0 0
5306	6293297 19 16698 16698 0.001 0.001 1 0 0 0 0
5307	6293316 19 16698 16698 0.001 0.001 1 0 0 0 0
5308	6293335 19 16698 16698 0.001 0.001 1 0 0 0 0
5309	6293354 27 16698 16698 0.001 0.001 1 375040000 375040000 375040000 1.406550016e+17
5310	6293381 27 16698 16698 0.001 0.001 1 375040000 375040000 375040000 1.406550016e+17
5311	6293408 27 16698 16698 0.001 0.001 1 411840000 411840000 411840000 1.696121856e+17
5312	6293435 27 16698 16698 0.001 0.001 1 411840000 411840000 411840000 1.696121856e+17
5313	6293462 27 16698 16698 0.001 0.001 1 411840000 411840000 411840000 1.696121856e+17
5314	6293489 19 16698 16698 0.001 0.001 1 0 0 0 0
5315	6293508 27 16698 16698 0.001 0.001 1 417280000 417280000 417280000 1.741225984e+17
5316	6293535 19 16698 16698 0.001 0.001 1 0 0 0 0
5317	6293554 27 16698 16698 0.001 0.001 1 566816000 566816000 566816000 3.21280377856e+17

