file 505730 1660743138                                          
version 3
run General-0-20220817-21:28:20-3808
attr configname General
attr datetime 20220817-21:28:20
attr datetimef 20220817-212820
attr experiment General
attr inifile auto-generated.ini
attr iterationvars ""
attr iterationvarsd ""
attr iterationvarsf ""
attr measurement ""
attr network partial_mesh
attr processid 3808
attr repetition 0
attr replication #0
attr resultdir results
attr runnumber 0
attr seedset 0
config image-path ../../inet/images
config network partial_mesh
config sim-time-limit 20ms
config record-eventlog false
config **.result-recording-modes all
config *.*.eth[*].bitrate 1Gbps
config **.visualizer.interfaceTableVisualizer.displayInterfaceTables true
config partial_mesh.es_1.numApps 18
config partial_mesh.es_1.hasOutgoingStreams true
config partial_mesh.es_1.hasIncomingStreams true
config partial_mesh.es_2.numApps 20
config partial_mesh.es_2.hasOutgoingStreams true
config partial_mesh.es_2.hasIncomingStreams true
config partial_mesh.es_3.numApps 21
config partial_mesh.es_3.hasOutgoingStreams true
config partial_mesh.es_3.hasIncomingStreams true
config partial_mesh.es_4.numApps 21
config partial_mesh.es_4.hasOutgoingStreams true
config partial_mesh.es_4.hasIncomingStreams true
config partial_mesh.es_5.numApps 17
config partial_mesh.es_5.hasOutgoingStreams true
config partial_mesh.es_5.hasIncomingStreams true
config partial_mesh.es_6.numApps 23
config partial_mesh.es_6.hasOutgoingStreams true
config partial_mesh.es_6.hasIncomingStreams true
config partial_mesh.es_*.hasEgressTrafficShaping true
config partial_mesh.s_*.hasIncomingStreams true
config partial_mesh.s_*.hasOutgoingStreams true
config partial_mesh.s_*.hasEgressTrafficShaping true
config partial_mesh.es_6.app[0].typename UdpSourceApp
config partial_mesh.es_6.app[0].display-name tsn-0
config partial_mesh.es_6.app[0].io.destAddress "\"es_2\""
config partial_mesh.es_6.app[0].io.destPort 5000
config partial_mesh.es_6.app[0].source.packetNameFormat "\"%M-%m-%c\""
config partial_mesh.es_6.app[0].source.packetLength 40B
config partial_mesh.es_6.app[0].source.productionInterval 100us
config partial_mesh.es_2.app[0].typename UdpSinkApp
config partial_mesh.es_2.app[0].display-name tsn-0
config partial_mesh.es_2.app[0].io.localPort 5000
config partial_mesh.es_5.app[0].typename UdpSourceApp
config partial_mesh.es_5.app[0].display-name tsn-1
config partial_mesh.es_5.app[0].io.destAddress "\"es_6\""
config partial_mesh.es_5.app[0].io.destPort 5001
config partial_mesh.es_5.app[0].source.packetNameFormat "\"%M-%m-%c\""
config partial_mesh.es_5.app[0].source.packetLength 50B
config partial_mesh.es_5.app[0].source.productionInterval 2000us
config partial_mesh.es_6.app[1].typename UdpSinkApp
config partial_mesh.es_6.app[1].display-name tsn-1
config partial_mesh.es_6.app[1].io.localPort 5001
config partial_mesh.es_4.app[0].typename UdpSourceApp
config partial_mesh.es_4.app[0].display-name tsn-2
config partial_mesh.es_4.app[0].io.destAddress "\"es_3\""
config partial_mesh.es_4.app[0].io.destPort 5002
config partial_mesh.es_4.app[0].source.packetNameFormat "\"%M-%m-%c\""
config partial_mesh.es_4.app[0].source.packetLength 50B
config partial_mesh.es_4.app[0].source.productionInterval 1000us
config partial_mesh.es_3.app[0].typename UdpSinkApp
config partial_mesh.es_3.app[0].display-name tsn-2
config partial_mesh.es_3.app[0].io.localPort 5002
config partial_mesh.es_4.app[1].typename UdpSourceApp
config partial_mesh.es_4.app[1].display-name tsn-3
config partial_mesh.es_4.app[1].io.destAddress "\"es_3\""
config partial_mesh.es_4.app[1].io.destPort 5003
config partial_mesh.es_4.app[1].source.packetNameFormat "\"%M-%m-%c\""
config partial_mesh.es_4.app[1].source.packetLength 50B
config partial_mesh.es_4.app[1].source.productionInterval 200us
config partial_mesh.es_3.app[1].typename UdpSinkApp
config partial_mesh.es_3.app[1].display-name tsn-3
config partial_mesh.es_3.app[1].io.localPort 5003
config partial_mesh.es_1.app[0].typename UdpSourceApp
config partial_mesh.es_1.app[0].display-name tsn-4
config partial_mesh.es_1.app[0].io.destAddress "\"es_4\""
config partial_mesh.es_1.app[0].io.destPort 5004
config partial_mesh.es_1.app[0].source.packetNameFormat "\"%M-%m-%c\""
config partial_mesh.es_1.app[0].source.packetLength 80B
config partial_mesh.es_1.app[0].source.productionInterval 200us
config partial_mesh.es_4.app[2].typename UdpSinkApp
config partial_mesh.es_4.app[2].display-name tsn-4
config partial_mesh.es_4.app[2].io.localPort 5004
config partial_mesh.es_3.app[2].typename UdpSourceApp
config partial_mesh.es_3.app[2].display-name tsn-5
config partial_mesh.es_3.app[2].io.destAddress "\"es_6\""
config partial_mesh.es_3.app[2].io.destPort 5005
config partial_mesh.es_3.app[2].source.packetNameFormat "\"%M-%m-%c\""
config partial_mesh.es_3.app[2].source.packetLength 70B
config partial_mesh.es_3.app[2].source.productionInterval 400us
config partial_mesh.es_6.app[2].typename UdpSinkApp
config partial_mesh.es_6.app[2].display-name tsn-5
config partial_mesh.es_6.app[2].io.localPort 5005
config partial_mesh.es_1.app[1].typename UdpSourceApp
config partial_mesh.es_1.app[1].display-name tsn-6
config partial_mesh.es_1.app[1].io.destAddress "\"es_3\""
config partial_mesh.es_1.app[1].io.destPort 5006
config partial_mesh.es_1.app[1].source.packetNameFormat "\"%M-%m-%c\""
config partial_mesh.es_1.app[1].source.packetLength 40B
config partial_mesh.es_1.app[1].source.productionInterval 200us
config partial_mesh.es_3.app[3].typename UdpSinkApp
config partial_mesh.es_3.app[3].display-name tsn-6
config partial_mesh.es_3.app[3].io.localPort 5006
config partial_mesh.es_3.app[4].typename UdpSourceApp
config partial_mesh.es_3.app[4].display-name tsn-7
config partial_mesh.es_3.app[4].io.destAddress "\"es_2\""
config partial_mesh.es_3.app[4].io.destPort 5007
config partial_mesh.es_3.app[4].source.packetNameFormat "\"%M-%m-%c\""
config partial_mesh.es_3.app[4].source.packetLength 50B
config partial_mesh.es_3.app[4].source.productionInterval 500us
config partial_mesh.es_2.app[1].typename UdpSinkApp
config partial_mesh.es_2.app[1].display-name tsn-7
config partial_mesh.es_2.app[1].io.localPort 5007
config partial_mesh.es_2.app[2].typename UdpSourceApp
config partial_mesh.es_2.app[2].display-name tsn-8
config partial_mesh.es_2.app[2].io.destAddress "\"es_5\""
config partial_mesh.es_2.app[2].io.destPort 5008
config partial_mesh.es_2.app[2].source.packetNameFormat "\"%M-%m-%c\""
config partial_mesh.es_2.app[2].source.packetLength 90B
config partial_mesh.es_2.app[2].source.productionInterval 500us
config partial_mesh.es_5.app[1].typename UdpSinkApp
config partial_mesh.es_5.app[1].display-name tsn-8
config partial_mesh.es_5.app[1].io.localPort 5008
config partial_mesh.es_3.app[5].typename UdpSourceApp
config partial_mesh.es_3.app[5].display-name tsn-9
config partial_mesh.es_3.app[5].io.destAddress "\"es_6\""
config partial_mesh.es_3.app[5].io.destPort 5009
config partial_mesh.es_3.app[5].source.packetNameFormat "\"%M-%m-%c\""
config partial_mesh.es_3.app[5].source.packetLength 90B
config partial_mesh.es_3.app[5].source.productionInterval 1000us
config partial_mesh.es_6.app[3].typename UdpSinkApp
config partial_mesh.es_6.app[3].display-name tsn-9
config partial_mesh.es_6.app[3].io.localPort 5009
config partial_mesh.es_4.app[3].typename UdpSourceApp
config partial_mesh.es_4.app[3].display-name tsn-10
config partial_mesh.es_4.app[3].io.destAddress "\"es_2\""
config partial_mesh.es_4.app[3].io.destPort 5010
config partial_mesh.es_4.app[3].source.packetNameFormat "\"%M-%m-%c\""
config partial_mesh.es_4.app[3].source.packetLength 30B
config partial_mesh.es_4.app[3].source.productionInterval 200us
config partial_mesh.es_2.app[3].typename UdpSinkApp
config partial_mesh.es_2.app[3].display-name tsn-10
config partial_mesh.es_2.app[3].io.localPort 5010
config partial_mesh.es_2.app[4].typename UdpSourceApp
config partial_mesh.es_2.app[4].display-name tsn-11
config partial_mesh.es_2.app[4].io.destAddress "\"es_1\""
config partial_mesh.es_2.app[4].io.destPort 5011
config partial_mesh.es_2.app[4].source.packetNameFormat "\"%M-%m-%c\""
config partial_mesh.es_2.app[4].source.packetLength 60B
config partial_mesh.es_2.app[4].source.productionInterval 100us
config partial_mesh.es_1.app[2].typename UdpSinkApp
config partial_mesh.es_1.app[2].display-name tsn-11
config partial_mesh.es_1.app[2].io.localPort 5011
config partial_mesh.es_6.app[4].typename UdpSourceApp
config partial_mesh.es_6.app[4].display-name tsn-12
config partial_mesh.es_6.app[4].io.destAddress "\"es_4\""
config partial_mesh.es_6.app[4].io.destPort 5012
config partial_mesh.es_6.app[4].source.packetNameFormat "\"%M-%m-%c\""
config partial_mesh.es_6.app[4].source.packetLength 50B
config partial_mesh.es_6.app[4].source.productionInterval 200us
config partial_mesh.es_4.app[4].typename UdpSinkApp
config partial_mesh.es_4.app[4].display-name tsn-12
config partial_mesh.es_4.app[4].io.localPort 5012
config partial_mesh.es_2.app[5].typename UdpSourceApp
config partial_mesh.es_2.app[5].display-name tsn-13
config partial_mesh.es_2.app[5].io.destAddress "\"es_1\""
config partial_mesh.es_2.app[5].io.destPort 5013
config partial_mesh.es_2.app[5].source.packetNameFormat "\"%M-%m-%c\""
config partial_mesh.es_2.app[5].source.packetLength 60B
config partial_mesh.es_2.app[5].source.productionInterval 500us
config partial_mesh.es_1.app[3].typename UdpSinkApp
config partial_mesh.es_1.app[3].display-name tsn-13
config partial_mesh.es_1.app[3].io.localPort 5013
config partial_mesh.es_3.app[6].typename UdpSourceApp
config partial_mesh.es_3.app[6].display-name tsn-14
config partial_mesh.es_3.app[6].io.destAddress "\"es_2\""
config partial_mesh.es_3.app[6].io.destPort 5014
config partial_mesh.es_3.app[6].source.packetNameFormat "\"%M-%m-%c\""
config partial_mesh.es_3.app[6].source.packetLength 100B
config partial_mesh.es_3.app[6].source.productionInterval 400us
config partial_mesh.es_2.app[6].typename UdpSinkApp
config partial_mesh.es_2.app[6].display-name tsn-14
config partial_mesh.es_2.app[6].io.localPort 5014
config partial_mesh.es_3.app[7].typename UdpSourceApp
config partial_mesh.es_3.app[7].display-name tsn-15
config partial_mesh.es_3.app[7].io.destAddress "\"es_5\""
config partial_mesh.es_3.app[7].io.destPort 5015
config partial_mesh.es_3.app[7].source.packetNameFormat "\"%M-%m-%c\""
config partial_mesh.es_3.app[7].source.packetLength 80B
config partial_mesh.es_3.app[7].source.productionInterval 400us
config partial_mesh.es_5.app[2].typename UdpSinkApp
config partial_mesh.es_5.app[2].display-name tsn-15
config partial_mesh.es_5.app[2].io.localPort 5015
config partial_mesh.es_6.app[5].typename UdpSourceApp
config partial_mesh.es_6.app[5].display-name tsn-16
config partial_mesh.es_6.app[5].io.destAddress "\"es_2\""
config partial_mesh.es_6.app[5].io.destPort 5016
config partial_mesh.es_6.app[5].source.packetNameFormat "\"%M-%m-%c\""
config partial_mesh.es_6.app[5].source.packetLength 30B
config partial_mesh.es_6.app[5].source.productionInterval 100us
config partial_mesh.es_2.app[7].typename UdpSinkApp
config partial_mesh.es_2.app[7].display-name tsn-16
config partial_mesh.es_2.app[7].io.localPort 5016
config partial_mesh.es_1.app[4].typename UdpSourceApp
config partial_mesh.es_1.app[4].display-name tsn-17
config partial_mesh.es_1.app[4].io.destAddress "\"es_3\""
config partial_mesh.es_1.app[4].io.destPort 5017
config partial_mesh.es_1.app[4].source.packetNameFormat "\"%M-%m-%c\""
config partial_mesh.es_1.app[4].source.packetLength 50B
config partial_mesh.es_1.app[4].source.productionInterval 400us
config partial_mesh.es_3.app[8].typename UdpSinkApp
config partial_mesh.es_3.app[8].display-name tsn-17
config partial_mesh.es_3.app[8].io.localPort 5017
config partial_mesh.es_3.app[9].typename UdpSourceApp
config partial_mesh.es_3.app[9].display-name tsn-18
config partial_mesh.es_3.app[9].io.destAddress "\"es_4\""
config partial_mesh.es_3.app[9].io.destPort 5018
config partial_mesh.es_3.app[9].source.packetNameFormat "\"%M-%m-%c\""
config partial_mesh.es_3.app[9].source.packetLength 60B
config partial_mesh.es_3.app[9].source.productionInterval 1000us
config partial_mesh.es_4.app[5].typename UdpSinkApp
config partial_mesh.es_4.app[5].display-name tsn-18
config partial_mesh.es_4.app[5].io.localPort 5018
config partial_mesh.es_1.app[5].typename UdpSourceApp
config partial_mesh.es_1.app[5].display-name tsn-19
config partial_mesh.es_1.app[5].io.destAddress "\"es_5\""
config partial_mesh.es_1.app[5].io.destPort 5019
config partial_mesh.es_1.app[5].source.packetNameFormat "\"%M-%m-%c\""
config partial_mesh.es_1.app[5].source.packetLength 30B
config partial_mesh.es_1.app[5].source.productionInterval 500us
config partial_mesh.es_5.app[3].typename UdpSinkApp
config partial_mesh.es_5.app[3].display-name tsn-19
config partial_mesh.es_5.app[3].io.localPort 5019
config partial_mesh.es_6.app[6].typename UdpSourceApp
config partial_mesh.es_6.app[6].display-name tsn-20
config partial_mesh.es_6.app[6].io.destAddress "\"es_5\""
config partial_mesh.es_6.app[6].io.destPort 5020
config partial_mesh.es_6.app[6].source.packetNameFormat "\"%M-%m-%c\""
config partial_mesh.es_6.app[6].source.packetLength 70B
config partial_mesh.es_6.app[6].source.productionInterval 2000us
config partial_mesh.es_5.app[4].typename UdpSinkApp
config partial_mesh.es_5.app[4].display-name tsn-20
config partial_mesh.es_5.app[4].io.localPort 5020
config partial_mesh.es_1.app[6].typename UdpSourceApp
config partial_mesh.es_1.app[6].display-name tsn-21
config partial_mesh.es_1.app[6].io.destAddress "\"es_6\""
config partial_mesh.es_1.app[6].io.destPort 5021
config partial_mesh.es_1.app[6].source.packetNameFormat "\"%M-%m-%c\""
config partial_mesh.es_1.app[6].source.packetLength 90B
config partial_mesh.es_1.app[6].source.productionInterval 1000us
config partial_mesh.es_6.app[7].typename UdpSinkApp
config partial_mesh.es_6.app[7].display-name tsn-21
config partial_mesh.es_6.app[7].io.localPort 5021
config partial_mesh.es_5.app[5].typename UdpSourceApp
config partial_mesh.es_5.app[5].display-name tsn-22
config partial_mesh.es_5.app[5].io.destAddress "\"es_3\""
config partial_mesh.es_5.app[5].io.destPort 5022
config partial_mesh.es_5.app[5].source.packetNameFormat "\"%M-%m-%c\""
config partial_mesh.es_5.app[5].source.packetLength 30B
config partial_mesh.es_5.app[5].source.productionInterval 500us
config partial_mesh.es_3.app[10].typename UdpSinkApp
config partial_mesh.es_3.app[10].display-name tsn-22
config partial_mesh.es_3.app[10].io.localPort 5022
config partial_mesh.es_2.app[8].typename UdpSourceApp
config partial_mesh.es_2.app[8].display-name tsn-23
config partial_mesh.es_2.app[8].io.destAddress "\"es_4\""
config partial_mesh.es_2.app[8].io.destPort 5023
config partial_mesh.es_2.app[8].source.packetNameFormat "\"%M-%m-%c\""
config partial_mesh.es_2.app[8].source.packetLength 30B
config partial_mesh.es_2.app[8].source.productionInterval 400us
config partial_mesh.es_4.app[6].typename UdpSinkApp
config partial_mesh.es_4.app[6].display-name tsn-23
config partial_mesh.es_4.app[6].io.localPort 5023
config partial_mesh.es_6.app[8].typename UdpSourceApp
config partial_mesh.es_6.app[8].display-name tsn-24
config partial_mesh.es_6.app[8].io.destAddress "\"es_3\""
config partial_mesh.es_6.app[8].io.destPort 5024
config partial_mesh.es_6.app[8].source.packetNameFormat "\"%M-%m-%c\""
config partial_mesh.es_6.app[8].source.packetLength 50B
config partial_mesh.es_6.app[8].source.productionInterval 500us
config partial_mesh.es_3.app[11].typename UdpSinkApp
config partial_mesh.es_3.app[11].display-name tsn-24
config partial_mesh.es_3.app[11].io.localPort 5024
config partial_mesh.es_4.app[7].typename UdpSourceApp
config partial_mesh.es_4.app[7].display-name tsn-25
config partial_mesh.es_4.app[7].io.destAddress "\"es_3\""
config partial_mesh.es_4.app[7].io.destPort 5025
config partial_mesh.es_4.app[7].source.packetNameFormat "\"%M-%m-%c\""
config partial_mesh.es_4.app[7].source.packetLength 70B
config partial_mesh.es_4.app[7].source.productionInterval 400us
config partial_mesh.es_3.app[12].typename UdpSinkApp
config partial_mesh.es_3.app[12].display-name tsn-25
config partial_mesh.es_3.app[12].io.localPort 5025
config partial_mesh.es_2.app[9].typename UdpSourceApp
config partial_mesh.es_2.app[9].display-name tsn-26
config partial_mesh.es_2.app[9].io.destAddress "\"es_3\""
config partial_mesh.es_2.app[9].io.destPort 5026
config partial_mesh.es_2.app[9].source.packetNameFormat "\"%M-%m-%c\""
config partial_mesh.es_2.app[9].source.packetLength 70B
config partial_mesh.es_2.app[9].source.productionInterval 200us
config partial_mesh.es_3.app[13].typename UdpSinkApp
config partial_mesh.es_3.app[13].display-name tsn-26
config partial_mesh.es_3.app[13].io.localPort 5026
config partial_mesh.es_4.app[8].typename UdpSourceApp
config partial_mesh.es_4.app[8].display-name tsn-27
config partial_mesh.es_4.app[8].io.destAddress "\"es_6\""
config partial_mesh.es_4.app[8].io.destPort 5027
config partial_mesh.es_4.app[8].source.packetNameFormat "\"%M-%m-%c\""
config partial_mesh.es_4.app[8].source.packetLength 40B
config partial_mesh.es_4.app[8].source.productionInterval 200us
config partial_mesh.es_6.app[9].typename UdpSinkApp
config partial_mesh.es_6.app[9].display-name tsn-27
config partial_mesh.es_6.app[9].io.localPort 5027
config partial_mesh.es_1.app[7].typename UdpSourceApp
config partial_mesh.es_1.app[7].display-name tsn-28
config partial_mesh.es_1.app[7].io.destAddress "\"es_2\""
config partial_mesh.es_1.app[7].io.destPort 5028
config partial_mesh.es_1.app[7].source.packetNameFormat "\"%M-%m-%c\""
config partial_mesh.es_1.app[7].source.packetLength 100B
config partial_mesh.es_1.app[7].source.productionInterval 2000us
config partial_mesh.es_2.app[10].typename UdpSinkApp
config partial_mesh.es_2.app[10].display-name tsn-28
config partial_mesh.es_2.app[10].io.localPort 5028
config partial_mesh.es_1.app[8].typename UdpSourceApp
config partial_mesh.es_1.app[8].display-name tsn-29
config partial_mesh.es_1.app[8].io.destAddress "\"es_3\""
config partial_mesh.es_1.app[8].io.destPort 5029
config partial_mesh.es_1.app[8].source.packetNameFormat "\"%M-%m-%c\""
config partial_mesh.es_1.app[8].source.packetLength 70B
config partial_mesh.es_1.app[8].source.productionInterval 400us
config partial_mesh.es_3.app[14].typename UdpSinkApp
config partial_mesh.es_3.app[14].display-name tsn-29
config partial_mesh.es_3.app[14].io.localPort 5029
config partial_mesh.es_6.app[10].typename UdpSourceApp
config partial_mesh.es_6.app[10].display-name tsn-30
config partial_mesh.es_6.app[10].io.destAddress "\"es_4\""
config partial_mesh.es_6.app[10].io.destPort 5030
config partial_mesh.es_6.app[10].source.packetNameFormat "\"%M-%m-%c\""
config partial_mesh.es_6.app[10].source.packetLength 90B
config partial_mesh.es_6.app[10].source.productionInterval 2000us
config partial_mesh.es_4.app[9].typename UdpSinkApp
config partial_mesh.es_4.app[9].display-name tsn-30
config partial_mesh.es_4.app[9].io.localPort 5030
config partial_mesh.es_4.app[10].typename UdpSourceApp
config partial_mesh.es_4.app[10].display-name tsn-31
config partial_mesh.es_4.app[10].io.destAddress "\"es_2\""
config partial_mesh.es_4.app[10].io.destPort 5031
config partial_mesh.es_4.app[10].source.packetNameFormat "\"%M-%m-%c\""
config partial_mesh.es_4.app[10].source.packetLength 70B
config partial_mesh.es_4.app[10].source.productionInterval 200us
config partial_mesh.es_2.app[11].typename UdpSinkApp
config partial_mesh.es_2.app[11].display-name tsn-31
config partial_mesh.es_2.app[11].io.localPort 5031
config partial_mesh.es_6.app[11].typename UdpSourceApp
config partial_mesh.es_6.app[11].display-name tsn-32
config partial_mesh.es_6.app[11].io.destAddress "\"es_5\""
config partial_mesh.es_6.app[11].io.destPort 5032
config partial_mesh.es_6.app[11].source.packetNameFormat "\"%M-%m-%c\""
config partial_mesh.es_6.app[11].source.packetLength 70B
config partial_mesh.es_6.app[11].source.productionInterval 400us
config partial_mesh.es_5.app[6].typename UdpSinkApp
config partial_mesh.es_5.app[6].display-name tsn-32
config partial_mesh.es_5.app[6].io.localPort 5032
config partial_mesh.es_5.app[7].typename UdpSourceApp
config partial_mesh.es_5.app[7].display-name tsn-33
config partial_mesh.es_5.app[7].io.destAddress "\"es_4\""
config partial_mesh.es_5.app[7].io.destPort 5033
config partial_mesh.es_5.app[7].source.packetNameFormat "\"%M-%m-%c\""
config partial_mesh.es_5.app[7].source.packetLength 60B
config partial_mesh.es_5.app[7].source.productionInterval 500us
config partial_mesh.es_4.app[11].typename UdpSinkApp
config partial_mesh.es_4.app[11].display-name tsn-33
config partial_mesh.es_4.app[11].io.localPort 5033
config partial_mesh.es_5.app[8].typename UdpSourceApp
config partial_mesh.es_5.app[8].display-name tsn-34
config partial_mesh.es_5.app[8].io.destAddress "\"es_3\""
config partial_mesh.es_5.app[8].io.destPort 5034
config partial_mesh.es_5.app[8].source.packetNameFormat "\"%M-%m-%c\""
config partial_mesh.es_5.app[8].source.packetLength 50B
config partial_mesh.es_5.app[8].source.productionInterval 200us
config partial_mesh.es_3.app[15].typename UdpSinkApp
config partial_mesh.es_3.app[15].display-name tsn-34
config partial_mesh.es_3.app[15].io.localPort 5034
config partial_mesh.es_3.app[16].typename UdpSourceApp
config partial_mesh.es_3.app[16].display-name tsn-35
config partial_mesh.es_3.app[16].io.destAddress "\"es_2\""
config partial_mesh.es_3.app[16].io.destPort 5035
config partial_mesh.es_3.app[16].source.packetNameFormat "\"%M-%m-%c\""
config partial_mesh.es_3.app[16].source.packetLength 50B
config partial_mesh.es_3.app[16].source.productionInterval 100us
config partial_mesh.es_2.app[12].typename UdpSinkApp
config partial_mesh.es_2.app[12].display-name tsn-35
config partial_mesh.es_2.app[12].io.localPort 5035
config partial_mesh.es_6.app[12].typename UdpSourceApp
config partial_mesh.es_6.app[12].display-name tsn-36
config partial_mesh.es_6.app[12].io.destAddress "\"es_1\""
config partial_mesh.es_6.app[12].io.destPort 5036
config partial_mesh.es_6.app[12].source.packetNameFormat "\"%M-%m-%c\""
config partial_mesh.es_6.app[12].source.packetLength 40B
config partial_mesh.es_6.app[12].source.productionInterval 2000us
config partial_mesh.es_1.app[9].typename UdpSinkApp
config partial_mesh.es_1.app[9].display-name tsn-36
config partial_mesh.es_1.app[9].io.localPort 5036
config partial_mesh.es_6.app[13].typename UdpSourceApp
config partial_mesh.es_6.app[13].display-name tsn-37
config partial_mesh.es_6.app[13].io.destAddress "\"es_4\""
config partial_mesh.es_6.app[13].io.destPort 5037
config partial_mesh.es_6.app[13].source.packetNameFormat "\"%M-%m-%c\""
config partial_mesh.es_6.app[13].source.packetLength 50B
config partial_mesh.es_6.app[13].source.productionInterval 100us
config partial_mesh.es_4.app[12].typename UdpSinkApp
config partial_mesh.es_4.app[12].display-name tsn-37
config partial_mesh.es_4.app[12].io.localPort 5037
config partial_mesh.es_5.app[9].typename UdpSourceApp
config partial_mesh.es_5.app[9].display-name tsn-38
config partial_mesh.es_5.app[9].io.destAddress "\"es_2\""
config partial_mesh.es_5.app[9].io.destPort 5038
config partial_mesh.es_5.app[9].source.packetNameFormat "\"%M-%m-%c\""
config partial_mesh.es_5.app[9].source.packetLength 40B
config partial_mesh.es_5.app[9].source.productionInterval 1000us
config partial_mesh.es_2.app[13].typename UdpSinkApp
config partial_mesh.es_2.app[13].display-name tsn-38
config partial_mesh.es_2.app[13].io.localPort 5038
config partial_mesh.es_1.app[10].typename UdpSourceApp
config partial_mesh.es_1.app[10].display-name tsn-39
config partial_mesh.es_1.app[10].io.destAddress "\"es_5\""
config partial_mesh.es_1.app[10].io.destPort 5039
config partial_mesh.es_1.app[10].source.packetNameFormat "\"%M-%m-%c\""
config partial_mesh.es_1.app[10].source.packetLength 30B
config partial_mesh.es_1.app[10].source.productionInterval 2000us
config partial_mesh.es_5.app[10].typename UdpSinkApp
config partial_mesh.es_5.app[10].display-name tsn-39
config partial_mesh.es_5.app[10].io.localPort 5039
config partial_mesh.es_5.app[11].typename UdpSourceApp
config partial_mesh.es_5.app[11].display-name avb-40
config partial_mesh.es_5.app[11].io.destAddress "\"es_6\""
config partial_mesh.es_5.app[11].io.destPort 5040
config partial_mesh.es_5.app[11].source.packetNameFormat "\"%M-%m-%c\""
config partial_mesh.es_5.app[11].source.packetLength 1200B
config partial_mesh.es_5.app[11].source.productionInterval 125us
config partial_mesh.es_6.app[14].typename UdpSinkApp
config partial_mesh.es_6.app[14].display-name avb-40
config partial_mesh.es_6.app[14].io.localPort 5040
config partial_mesh.es_6.app[15].typename UdpSourceApp
config partial_mesh.es_6.app[15].display-name avb-41
config partial_mesh.es_6.app[15].io.destAddress "\"es_3\""
config partial_mesh.es_6.app[15].io.destPort 5041
config partial_mesh.es_6.app[15].source.packetNameFormat "\"%M-%m-%c\""
config partial_mesh.es_6.app[15].source.packetLength 1500B
config partial_mesh.es_6.app[15].source.productionInterval 125us
config partial_mesh.es_3.app[17].typename UdpSinkApp
config partial_mesh.es_3.app[17].display-name avb-41
config partial_mesh.es_3.app[17].io.localPort 5041
config partial_mesh.es_2.app[14].typename UdpSourceApp
config partial_mesh.es_2.app[14].display-name avb-42
config partial_mesh.es_2.app[14].io.destAddress "\"es_6\""
config partial_mesh.es_2.app[14].io.destPort 5042
config partial_mesh.es_2.app[14].source.packetNameFormat "\"%M-%m-%c\""
config partial_mesh.es_2.app[14].source.packetLength 1000B
config partial_mesh.es_2.app[14].source.productionInterval 125us
config partial_mesh.es_6.app[16].typename UdpSinkApp
config partial_mesh.es_6.app[16].display-name avb-42
config partial_mesh.es_6.app[16].io.localPort 5042
config partial_mesh.es_3.app[18].typename UdpSourceApp
config partial_mesh.es_3.app[18].display-name avb-43
config partial_mesh.es_3.app[18].io.destAddress "\"es_1\""
config partial_mesh.es_3.app[18].io.destPort 5043
config partial_mesh.es_3.app[18].source.packetNameFormat "\"%M-%m-%c\""
config partial_mesh.es_3.app[18].source.packetLength 1100B
config partial_mesh.es_3.app[18].source.productionInterval 125us
config partial_mesh.es_1.app[11].typename UdpSinkApp
config partial_mesh.es_1.app[11].display-name avb-43
config partial_mesh.es_1.app[11].io.localPort 5043
config partial_mesh.es_5.app[12].typename UdpSourceApp
config partial_mesh.es_5.app[12].display-name avb-44
config partial_mesh.es_5.app[12].io.destAddress "\"es_4\""
config partial_mesh.es_5.app[12].io.destPort 5044
config partial_mesh.es_5.app[12].source.packetNameFormat "\"%M-%m-%c\""
config partial_mesh.es_5.app[12].source.packetLength 1100B
config partial_mesh.es_5.app[12].source.productionInterval 125us
config partial_mesh.es_4.app[13].typename UdpSinkApp
config partial_mesh.es_4.app[13].display-name avb-44
config partial_mesh.es_4.app[13].io.localPort 5044
config partial_mesh.es_4.app[14].typename UdpSourceApp
config partial_mesh.es_4.app[14].display-name avb-45
config partial_mesh.es_4.app[14].io.destAddress "\"es_5\""
config partial_mesh.es_4.app[14].io.destPort 5045
config partial_mesh.es_4.app[14].source.packetNameFormat "\"%M-%m-%c\""
config partial_mesh.es_4.app[14].source.packetLength 1000B
config partial_mesh.es_4.app[14].source.productionInterval 125us
config partial_mesh.es_5.app[13].typename UdpSinkApp
config partial_mesh.es_5.app[13].display-name avb-45
config partial_mesh.es_5.app[13].io.localPort 5045
config partial_mesh.es_6.app[17].typename UdpSourceApp
config partial_mesh.es_6.app[17].display-name avb-46
config partial_mesh.es_6.app[17].io.destAddress "\"es_1\""
config partial_mesh.es_6.app[17].io.destPort 5046
config partial_mesh.es_6.app[17].source.packetNameFormat "\"%M-%m-%c\""
config partial_mesh.es_6.app[17].source.packetLength 1100B
config partial_mesh.es_6.app[17].source.productionInterval 125us
config partial_mesh.es_1.app[12].typename UdpSinkApp
config partial_mesh.es_1.app[12].display-name avb-46
config partial_mesh.es_1.app[12].io.localPort 5046
config partial_mesh.es_4.app[15].typename UdpSourceApp
config partial_mesh.es_4.app[15].display-name avb-47
config partial_mesh.es_4.app[15].io.destAddress "\"es_2\""
config partial_mesh.es_4.app[15].io.destPort 5047
config partial_mesh.es_4.app[15].source.packetNameFormat "\"%M-%m-%c\""
config partial_mesh.es_4.app[15].source.packetLength 1400B
config partial_mesh.es_4.app[15].source.productionInterval 125us
config partial_mesh.es_2.app[15].typename UdpSinkApp
config partial_mesh.es_2.app[15].display-name avb-47
config partial_mesh.es_2.app[15].io.localPort 5047
config partial_mesh.es_1.app[13].typename UdpSourceApp
config partial_mesh.es_1.app[13].display-name avb-48
config partial_mesh.es_1.app[13].io.destAddress "\"es_6\""
config partial_mesh.es_1.app[13].io.destPort 5048
config partial_mesh.es_1.app[13].source.packetNameFormat "\"%M-%m-%c\""
config partial_mesh.es_1.app[13].source.packetLength 1500B
config partial_mesh.es_1.app[13].source.productionInterval 125us
config partial_mesh.es_6.app[18].typename UdpSinkApp
config partial_mesh.es_6.app[18].display-name avb-48
config partial_mesh.es_6.app[18].io.localPort 5048
config partial_mesh.es_3.app[19].typename UdpSourceApp
config partial_mesh.es_3.app[19].display-name avb-49
config partial_mesh.es_3.app[19].io.destAddress "\"es_2\""
config partial_mesh.es_3.app[19].io.destPort 5049
config partial_mesh.es_3.app[19].source.packetNameFormat "\"%M-%m-%c\""
config partial_mesh.es_3.app[19].source.packetLength 1000B
config partial_mesh.es_3.app[19].source.productionInterval 125us
config partial_mesh.es_2.app[16].typename UdpSinkApp
config partial_mesh.es_2.app[16].display-name avb-49
config partial_mesh.es_2.app[16].io.localPort 5049
config partial_mesh.es_2.app[17].typename UdpSourceApp
config partial_mesh.es_2.app[17].display-name avb-50
config partial_mesh.es_2.app[17].io.destAddress "\"es_1\""
config partial_mesh.es_2.app[17].io.destPort 5050
config partial_mesh.es_2.app[17].source.packetNameFormat "\"%M-%m-%c\""
config partial_mesh.es_2.app[17].source.packetLength 1000B
config partial_mesh.es_2.app[17].source.productionInterval 125us
config partial_mesh.es_1.app[14].typename UdpSinkApp
config partial_mesh.es_1.app[14].display-name avb-50
config partial_mesh.es_1.app[14].io.localPort 5050
config partial_mesh.es_4.app[16].typename UdpSourceApp
config partial_mesh.es_4.app[16].display-name avb-51
config partial_mesh.es_4.app[16].io.destAddress "\"es_2\""
config partial_mesh.es_4.app[16].io.destPort 5051
config partial_mesh.es_4.app[16].source.packetNameFormat "\"%M-%m-%c\""
config partial_mesh.es_4.app[16].source.packetLength 1400B
config partial_mesh.es_4.app[16].source.productionInterval 125us
config partial_mesh.es_2.app[18].typename UdpSinkApp
config partial_mesh.es_2.app[18].display-name avb-51
config partial_mesh.es_2.app[18].io.localPort 5051
config partial_mesh.es_3.app[20].typename UdpSourceApp
config partial_mesh.es_3.app[20].display-name avb-52
config partial_mesh.es_3.app[20].io.destAddress "\"es_2\""
config partial_mesh.es_3.app[20].io.destPort 5052
config partial_mesh.es_3.app[20].source.packetNameFormat "\"%M-%m-%c\""
config partial_mesh.es_3.app[20].source.packetLength 1200B
config partial_mesh.es_3.app[20].source.productionInterval 125us
config partial_mesh.es_2.app[19].typename UdpSinkApp
config partial_mesh.es_2.app[19].display-name avb-52
config partial_mesh.es_2.app[19].io.localPort 5052
config partial_mesh.es_1.app[15].typename UdpSourceApp
config partial_mesh.es_1.app[15].display-name avb-53
config partial_mesh.es_1.app[15].io.destAddress "\"es_4\""
config partial_mesh.es_1.app[15].io.destPort 5053
config partial_mesh.es_1.app[15].source.packetNameFormat "\"%M-%m-%c\""
config partial_mesh.es_1.app[15].source.packetLength 1200B
config partial_mesh.es_1.app[15].source.productionInterval 125us
config partial_mesh.es_4.app[17].typename UdpSinkApp
config partial_mesh.es_4.app[17].display-name avb-53
config partial_mesh.es_4.app[17].io.localPort 5053
config partial_mesh.es_4.app[18].typename UdpSourceApp
config partial_mesh.es_4.app[18].display-name avb-54
config partial_mesh.es_4.app[18].io.destAddress "\"es_6\""
config partial_mesh.es_4.app[18].io.destPort 5054
config partial_mesh.es_4.app[18].source.packetNameFormat "\"%M-%m-%c\""
config partial_mesh.es_4.app[18].source.packetLength 1500B
config partial_mesh.es_4.app[18].source.productionInterval 125us
config partial_mesh.es_6.app[19].typename UdpSinkApp
config partial_mesh.es_6.app[19].display-name avb-54
config partial_mesh.es_6.app[19].io.localPort 5054
config partial_mesh.es_5.app[14].typename UdpSourceApp
config partial_mesh.es_5.app[14].display-name avb-55
config partial_mesh.es_5.app[14].io.destAddress "\"es_1\""
config partial_mesh.es_5.app[14].io.destPort 5055
config partial_mesh.es_5.app[14].source.packetNameFormat "\"%M-%m-%c\""
config partial_mesh.es_5.app[14].source.packetLength 1400B
config partial_mesh.es_5.app[14].source.productionInterval 125us
config partial_mesh.es_1.app[16].typename UdpSinkApp
config partial_mesh.es_1.app[16].display-name avb-55
config partial_mesh.es_1.app[16].io.localPort 5055
config partial_mesh.es_6.app[20].typename UdpSourceApp
config partial_mesh.es_6.app[20].display-name avb-56
config partial_mesh.es_6.app[20].io.destAddress "\"es_5\""
config partial_mesh.es_6.app[20].io.destPort 5056
config partial_mesh.es_6.app[20].source.packetNameFormat "\"%M-%m-%c\""
config partial_mesh.es_6.app[20].source.packetLength 1100B
config partial_mesh.es_6.app[20].source.productionInterval 125us
config partial_mesh.es_5.app[15].typename UdpSinkApp
config partial_mesh.es_5.app[15].display-name avb-56
config partial_mesh.es_5.app[15].io.localPort 5056
config partial_mesh.es_6.app[21].typename UdpSourceApp
config partial_mesh.es_6.app[21].display-name avb-57
config partial_mesh.es_6.app[21].io.destAddress "\"es_1\""
config partial_mesh.es_6.app[21].io.destPort 5057
config partial_mesh.es_6.app[21].source.packetNameFormat "\"%M-%m-%c\""
config partial_mesh.es_6.app[21].source.packetLength 1100B
config partial_mesh.es_6.app[21].source.productionInterval 125us
config partial_mesh.es_1.app[17].typename UdpSinkApp
config partial_mesh.es_1.app[17].display-name avb-57
config partial_mesh.es_1.app[17].io.localPort 5057
config partial_mesh.es_4.app[19].typename UdpSourceApp
config partial_mesh.es_4.app[19].display-name avb-58
config partial_mesh.es_4.app[19].io.destAddress "\"es_5\""
config partial_mesh.es_4.app[19].io.destPort 5058
config partial_mesh.es_4.app[19].source.packetNameFormat "\"%M-%m-%c\""
config partial_mesh.es_4.app[19].source.packetLength 1300B
config partial_mesh.es_4.app[19].source.productionInterval 125us
config partial_mesh.es_5.app[16].typename UdpSinkApp
config partial_mesh.es_5.app[16].display-name avb-58
config partial_mesh.es_5.app[16].io.localPort 5058
config partial_mesh.es_4.app[20].typename UdpSourceApp
config partial_mesh.es_4.app[20].display-name avb-59
config partial_mesh.es_4.app[20].io.destAddress "\"es_6\""
config partial_mesh.es_4.app[20].io.destPort 5059
config partial_mesh.es_4.app[20].source.packetNameFormat "\"%M-%m-%c\""
config partial_mesh.es_4.app[20].source.packetLength 1000B
config partial_mesh.es_4.app[20].source.productionInterval 125us
config partial_mesh.es_6.app[22].typename UdpSinkApp
config partial_mesh.es_6.app[22].display-name avb-59
config partial_mesh.es_6.app[22].io.localPort 5059
config *.*.eth[*].macLayer.queue.classifier.mapping "[[0, 0, 0, 0, 0, 0, 0, 0],\n                                                [0, 0, 0, 0, 0, 1, 1, 1],\n                                                [0, 0, 0, 1, 1, 2, 2, 2],\n                                                [0, 0, 0, 1, 1, 2, 3, 3],\n                                                [0, 1, 1, 2, 2, 3, 4, 4],\n                                                [0, 1, 1, 2, 2, 3, 4, 5],\n                                                [0, 1, 2, 3, 3, 4, 5, 6],\n                                                [0, 1, 2, 3, 4, 5, 6, 7]]"
config *.macForwardingTableConfigurator.typename ""
config *.*.hasStreamRedundancy true
config *.*.bridging.streamRelay.typename StreamRelayLayer
config *.*.bridging.streamCoder.typename StreamCoderLayer
config *.streamRedundancyConfigurator.typename r438StreamRedundancyConfigurator
config *.streamRedundancyConfigurator.configuration "[\n\t{pcp: 0, name: \"tsn-0\", packetFilter: \"*-tsn-0-*\", source: \"es_6\", destination: \"es_2\", trees: [[[\"es_6\", \"s_12\", \"s_11\", \"s_7\", \"s_3\", \"s_4\", \"es_2\"]], [[\"es_6\", \"s_12\", \"s_8\", \"s_4\", \"es_2\"]]]},\n\t{pcp: 1, name: \"tsn-1\", packetFilter: \"*-tsn-1-*\", source: \"es_5\", destination: \"es_6\", trees: [[[\"es_5\", \"s_9\", \"s_5\", \"s_1\", \"s_2\", \"s_3\", \"s_4\", \"s_8\", \"s_12\", \"es_6\"]], [[\"es_5\", \"s_9\", \"s_10\", \"s_11\", \"s_12\", \"es_6\"]]]},\n\t{pcp: 0, name: \"tsn-2\", packetFilter: \"*-tsn-2-*\", source: \"es_4\", destination: \"es_3\", trees: [[[\"es_4\", \"s_8\", \"s_7\", \"s_6\", \"s_5\", \"es_3\"]], [[\"es_4\", \"s_8\", \"s_12\", \"s_11\", \"s_10\", \"s_9\", \"s_5\", \"es_3\"]]]},\n\t{pcp: 0, name: \"tsn-3\", packetFilter: \"*-tsn-3-*\", source: \"es_4\", destination: \"es_3\", trees: [[[\"es_4\", \"s_8\", \"s_7\", \"s_6\", \"s_5\", \"es_3\"]], [[\"es_4\", \"s_8\", \"s_12\", \"s_11\", \"s_10\", \"s_9\", \"s_5\", \"es_3\"]]]},\n\t{pcp: 0, name: \"tsn-4\", packetFilter: \"*-tsn-4-*\", source: \"es_1\", destination: \"es_4\", trees: [[[\"es_1\", \"s_1\", \"s_2\", \"s_3\", \"s_4\", \"s_8\", \"es_4\"]], [[\"es_1\", \"s_1\", \"s_5\", \"s_6\", \"s_10\", \"s_11\", \"s_7\", \"s_8\", \"es_4\"]]]},\n\t{pcp: 0, name: \"tsn-5\", packetFilter: \"*-tsn-5-*\", source: \"es_3\", destination: \"es_6\", trees: [[[\"es_3\", \"s_5\", \"s_6\", \"s_7\", \"s_8\", \"s_12\", \"es_6\"]], [[\"es_3\", \"s_5\", \"s_9\", \"s_10\", \"s_11\", \"s_12\", \"es_6\"]]]},\n\t{pcp: 0, name: \"tsn-6\", packetFilter: \"*-tsn-6-*\", source: \"es_1\", destination: \"es_3\", trees: [[[\"es_1\", \"s_1\", \"s_2\", \"s_6\", \"s_10\", \"s_9\", \"s_5\", \"es_3\"]], [[\"es_1\", \"s_1\", \"s_5\", \"es_3\"]]]},\n\t{pcp: 0, name: \"tsn-7\", packetFilter: \"*-tsn-7-*\", source: \"es_3\", destination: \"es_2\", trees: [[[\"es_3\", \"s_5\", \"s_1\", \"s_2\", \"s_3\", \"s_4\", \"es_2\"]], [[\"es_3\", \"s_5\", \"s_6\", \"s_7\", \"s_8\", \"s_4\", \"es_2\"]]]},\n\t{pcp: 0, name: \"tsn-8\", packetFilter: \"*-tsn-8-*\", source: \"es_2\", destination: \"es_5\", trees: [[[\"es_2\", \"s_4\", \"s_3\", \"s_2\", \"s_6\", \"s_5\", \"s_9\", \"es_5\"]], [[\"es_2\", \"s_4\", \"s_8\", \"s_12\", \"s_11\", \"s_10\", \"s_9\", \"es_5\"]]]},\n\t{pcp: 1, name: \"tsn-9\", packetFilter: \"*-tsn-9-*\", source: \"es_3\", destination: \"es_6\", trees: [[[\"es_3\", \"s_5\", \"s_6\", \"s_7\", \"s_8\", \"s_12\", \"es_6\"]], [[\"es_3\", \"s_5\", \"s_9\", \"s_10\", \"s_11\", \"s_12\", \"es_6\"]]]},\n\t{pcp: 0, name: \"tsn-10\", packetFilter: \"*-tsn-10-*\", source: \"es_4\", destination: \"es_2\", trees: [[[\"es_4\", \"s_8\", \"s_7\", \"s_3\", \"s_4\", \"es_2\"]], [[\"es_4\", \"s_8\", \"s_4\", \"es_2\"]]]},\n\t{pcp: 0, name: \"tsn-11\", packetFilter: \"*-tsn-11-*\", source: \"es_2\", destination: \"es_1\", trees: [[[\"es_2\", \"s_4\", \"s_3\", \"s_2\", \"s_1\", \"es_1\"]], [[\"es_2\", \"s_4\", \"s_8\", \"s_7\", \"s_6\", \"s_5\", \"s_1\", \"es_1\"]]]},\n\t{pcp: 0, name: \"tsn-12\", packetFilter: \"*-tsn-12-*\", source: \"es_6\", destination: \"es_4\", trees: [[[\"es_6\", \"s_12\", \"s_11\", \"s_7\", \"s_8\", \"es_4\"]], [[\"es_6\", \"s_12\", \"s_8\", \"es_4\"]]]},\n\t{pcp: 0, name: \"tsn-13\", packetFilter: \"*-tsn-13-*\", source: \"es_2\", destination: \"es_1\", trees: [[[\"es_2\", \"s_4\", \"s_3\", \"s_2\", \"s_1\", \"es_1\"]], [[\"es_2\", \"s_4\", \"s_8\", \"s_12\", \"s_11\", \"s_10\", \"s_9\", \"s_5\", \"s_1\", \"es_1\"]]]},\n\t{pcp: 0, name: \"tsn-14\", packetFilter: \"*-tsn-14-*\", source: \"es_3\", destination: \"es_2\", trees: [[[\"es_3\", \"s_5\", \"s_6\", \"s_2\", \"s_3\", \"s_4\", \"es_2\"]], [[\"es_3\", \"s_5\", \"s_9\", \"s_10\", \"s_11\", \"s_7\", \"s_8\", \"s_4\", \"es_2\"]]]},\n\t{pcp: 0, name: \"tsn-15\", packetFilter: \"*-tsn-15-*\", source: \"es_3\", destination: \"es_5\", trees: [[[\"es_3\", \"s_5\", \"s_6\", \"s_10\", \"s_9\", \"es_5\"]], [[\"es_3\", \"s_5\", \"s_9\", \"es_5\"]]]},\n\t{pcp: 0, name: \"tsn-16\", packetFilter: \"*-tsn-16-*\", source: \"es_6\", destination: \"es_2\", trees: [[[\"es_6\", \"s_12\", \"s_11\", \"s_7\", \"s_3\", \"s_4\", \"es_2\"]], [[\"es_6\", \"s_12\", \"s_8\", \"s_4\", \"es_2\"]]]},\n\t{pcp: 0, name: \"tsn-17\", packetFilter: \"*-tsn-17-*\", source: \"es_1\", destination: \"es_3\", trees: [[[\"es_1\", \"s_1\", \"s_2\", \"s_6\", \"s_5\", \"es_3\"]], [[\"es_1\", \"s_1\", \"s_5\", \"es_3\"]]]},\n\t{pcp: 1, name: \"tsn-18\", packetFilter: \"*-tsn-18-*\", source: \"es_3\", destination: \"es_4\", trees: [[[\"es_3\", \"s_5\", \"s_6\", \"s_7\", \"s_8\", \"es_4\"]], [[\"es_3\", \"s_5\", \"s_9\", \"s_10\", \"s_11\", \"s_12\", \"s_8\", \"es_4\"]]]},\n\t{pcp: 0, name: \"tsn-19\", packetFilter: \"*-tsn-19-*\", source: \"es_1\", destination: \"es_5\", trees: [[[\"es_1\", \"s_1\", \"s_2\", \"s_6\", \"s_10\", \"s_9\", \"es_5\"]], [[\"es_1\", \"s_1\", \"s_5\", \"s_9\", \"es_5\"]]]},\n\t{pcp: 0, name: \"tsn-20\", packetFilter: \"*-tsn-20-*\", source: \"es_6\", destination: \"es_5\", trees: [[[\"es_6\", \"s_12\", \"s_11\", \"s_10\", \"s_9\", \"es_5\"]], [[\"es_6\", \"s_12\", \"s_8\", \"s_7\", \"s_6\", \"s_5\", \"s_9\", \"es_5\"]]]},\n\t{pcp: 0, name: \"tsn-21\", packetFilter: \"*-tsn-21-*\", source: \"es_1\", destination: \"es_6\", trees: [[[\"es_1\", \"s_1\", \"s_2\", \"s_3\", \"s_7\", \"s_8\", \"s_12\", \"es_6\"]], [[\"es_1\", \"s_1\", \"s_5\", \"s_9\", \"s_10\", \"s_11\", \"s_12\", \"es_6\"]]]},\n\t{pcp: 0, name: \"tsn-22\", packetFilter: \"*-tsn-22-*\", source: \"es_5\", destination: \"es_3\", trees: [[[\"es_5\", \"s_9\", \"s_5\", \"es_3\"]], [[\"es_5\", \"s_9\", \"s_10\", \"s_6\", \"s_5\", \"es_3\"]]]},\n\t{pcp: 0, name: \"tsn-23\", packetFilter: \"*-tsn-23-*\", source: \"es_2\", destination: \"es_4\", trees: [[[\"es_2\", \"s_4\", \"s_3\", \"s_7\", \"s_8\", \"es_4\"]], [[\"es_2\", \"s_4\", \"s_8\", \"es_4\"]]]},\n\t{pcp: 0, name: \"tsn-24\", packetFilter: \"*-tsn-24-*\", source: \"es_6\", destination: \"es_3\", trees: [[[\"es_6\", \"s_12\", \"s_11\", \"s_10\", \"s_9\", \"s_5\", \"es_3\"]], [[\"es_6\", \"s_12\", \"s_8\", \"s_7\", \"s_6\", \"s_5\", \"es_3\"]]]},\n\t{pcp: 0, name: \"tsn-25\", packetFilter: \"*-tsn-25-*\", source: \"es_4\", destination: \"es_3\", trees: [[[\"es_4\", \"s_8\", \"s_7\", \"s_6\", \"s_5\", \"es_3\"]], [[\"es_4\", \"s_8\", \"s_12\", \"s_11\", \"s_10\", \"s_9\", \"s_5\", \"es_3\"]]]},\n\t{pcp: 1, name: \"tsn-26\", packetFilter: \"*-tsn-26-*\", source: \"es_2\", destination: \"es_3\", trees: [[[\"es_2\", \"s_4\", \"s_3\", \"s_2\", \"s_1\", \"s_5\", \"es_3\"]], [[\"es_2\", \"s_4\", \"s_8\", \"s_7\", \"s_6\", \"s_10\", \"s_9\", \"s_5\", \"es_3\"]]]},\n\t{pcp: 0, name: \"tsn-27\", packetFilter: \"*-tsn-27-*\", source: \"es_4\", destination: \"es_6\", trees: [[[\"es_4\", \"s_8\", \"s_7\", \"s_11\", \"s_12\", \"es_6\"]], [[\"es_4\", \"s_8\", \"s_12\", \"es_6\"]]]},\n\t{pcp: 1, name: \"tsn-28\", packetFilter: \"*-tsn-28-*\", source: \"es_1\", destination: \"es_2\", trees: [[[\"es_1\", \"s_1\", \"s_2\", \"s_3\", \"s_4\", \"es_2\"]], [[\"es_1\", \"s_1\", \"s_5\", \"s_9\", \"s_10\", \"s_11\", \"s_7\", \"s_8\", \"s_4\", \"es_2\"]]]},\n\t{pcp: 0, name: \"tsn-29\", packetFilter: \"*-tsn-29-*\", source: \"es_1\", destination: \"es_3\", trees: [[[\"es_1\", \"s_1\", \"s_2\", \"s_6\", \"s_10\", \"s_9\", \"s_5\", \"es_3\"]], [[\"es_1\", \"s_1\", \"s_5\", \"es_3\"]]]},\n\t{pcp: 0, name: \"tsn-30\", packetFilter: \"*-tsn-30-*\", source: \"es_6\", destination: \"es_4\", trees: [[[\"es_6\", \"s_12\", \"s_11\", \"s_7\", \"s_8\", \"es_4\"]], [[\"es_6\", \"s_12\", \"s_8\", \"es_4\"]]]},\n\t{pcp: 0, name: \"tsn-31\", packetFilter: \"*-tsn-31-*\", source: \"es_4\", destination: \"es_2\", trees: [[[\"es_4\", \"s_8\", \"s_4\", \"es_2\"]], [[\"es_4\", \"s_8\", \"s_12\", \"s_11\", \"s_7\", \"s_3\", \"s_4\", \"es_2\"]]]},\n\t{pcp: 0, name: \"tsn-32\", packetFilter: \"*-tsn-32-*\", source: \"es_6\", destination: \"es_5\", trees: [[[\"es_6\", \"s_12\", \"s_11\", \"s_10\", \"s_9\", \"es_5\"]], [[\"es_6\", \"s_12\", \"s_8\", \"s_7\", \"s_6\", \"s_5\", \"s_9\", \"es_5\"]]]},\n\t{pcp: 1, name: \"tsn-33\", packetFilter: \"*-tsn-33-*\", source: \"es_5\", destination: \"es_4\", trees: [[[\"es_5\", \"s_9\", \"s_5\", \"s_6\", \"s_7\", \"s_8\", \"es_4\"]], [[\"es_5\", \"s_9\", \"s_10\", \"s_11\", \"s_12\", \"s_8\", \"es_4\"]]]},\n\t{pcp: 0, name: \"tsn-34\", packetFilter: \"*-tsn-34-*\", source: \"es_5\", destination: \"es_3\", trees: [[[\"es_5\", \"s_9\", \"s_5\", \"es_3\"]], [[\"es_5\", \"s_9\", \"s_10\", \"s_6\", \"s_5\", \"es_3\"]]]},\n\t{pcp: 0, name: \"tsn-35\", packetFilter: \"*-tsn-35-*\", source: \"es_3\", destination: \"es_2\", trees: [[[\"es_3\", \"s_5\", \"s_1\", \"s_2\", \"s_3\", \"s_4\", \"es_2\"]], [[\"es_3\", \"s_5\", \"s_6\", \"s_7\", \"s_8\", \"s_4\", \"es_2\"]]]},\n\t{pcp: 0, name: \"tsn-36\", packetFilter: \"*-tsn-36-*\", source: \"es_6\", destination: \"es_1\", trees: [[[\"es_6\", \"s_12\", \"s_11\", \"s_10\", \"s_9\", \"s_5\", \"s_1\", \"es_1\"]], [[\"es_6\", \"s_12\", \"s_8\", \"s_7\", \"s_3\", \"s_2\", \"s_1\", \"es_1\"]]]},\n\t{pcp: 0, name: \"tsn-37\", packetFilter: \"*-tsn-37-*\", source: \"es_6\", destination: \"es_4\", trees: [[[\"es_6\", \"s_12\", \"s_11\", \"s_7\", \"s_8\", \"es_4\"]], [[\"es_6\", \"s_12\", \"s_8\", \"es_4\"]]]},\n\t{pcp: 1, name: \"tsn-38\", packetFilter: \"*-tsn-38-*\", source: \"es_5\", destination: \"es_2\", trees: [[[\"es_5\", \"s_9\", \"s_5\", \"s_1\", \"s_2\", \"s_3\", \"s_4\", \"es_2\"]], [[\"es_5\", \"s_9\", \"s_10\", \"s_11\", \"s_7\", \"s_8\", \"s_4\", \"es_2\"]]]},\n\t{pcp: 0, name: \"tsn-39\", packetFilter: \"*-tsn-39-*\", source: \"es_1\", destination: \"es_5\", trees: [[[\"es_1\", \"s_1\", \"s_2\", \"s_6\", \"s_10\", \"s_9\", \"es_5\"]], [[\"es_1\", \"s_1\", \"s_5\", \"s_9\", \"es_5\"]]]},\n\t{pcp: 7, name: \"avb-40\", packetFilter: \"*-avb-40-*\", source: \"es_5\", destination: \"es_6\", trees: [[[\"es_5\", \"s_9\", \"s_5\", \"s_6\", \"s_7\", \"s_8\", \"s_12\", \"es_6\"]], [[\"es_5\", \"s_9\", \"s_10\", \"s_11\", \"s_12\", \"es_6\"]]]},\n\t{pcp: 7, name: \"avb-41\", packetFilter: \"*-avb-41-*\", source: \"es_6\", destination: \"es_3\", trees: [[[\"es_6\", \"s_12\", \"s_11\", \"s_10\", \"s_9\", \"s_5\", \"es_3\"]], [[\"es_6\", \"s_12\", \"s_8\", \"s_7\", \"s_6\", \"s_5\", \"es_3\"]]]},\n\t{pcp: 7, name: \"avb-42\", packetFilter: \"*-avb-42-*\", source: \"es_2\", destination: \"es_6\", trees: [[[\"es_2\", \"s_4\", \"s_3\", \"s_7\", \"s_11\", \"s_12\", \"es_6\"]], [[\"es_2\", \"s_4\", \"s_8\", \"s_12\", \"es_6\"]]]},\n\t{pcp: 7, name: \"avb-43\", packetFilter: \"*-avb-43-*\", source: \"es_3\", destination: \"es_1\", trees: [[[\"es_3\", \"s_5\", \"s_1\", \"es_1\"]], [[\"es_3\", \"s_5\", \"s_6\", \"s_2\", \"s_1\", \"es_1\"]]]},\n\t{pcp: 7, name: \"avb-44\", packetFilter: \"*-avb-44-*\", source: \"es_5\", destination: \"es_4\", trees: [[[\"es_5\", \"s_9\", \"s_5\", \"s_6\", \"s_7\", \"s_8\", \"es_4\"]], [[\"es_5\", \"s_9\", \"s_10\", \"s_11\", \"s_12\", \"s_8\", \"es_4\"]]]},\n\t{pcp: 7, name: \"avb-45\", packetFilter: \"*-avb-45-*\", source: \"es_4\", destination: \"es_5\", trees: [[[\"es_4\", \"s_8\", \"s_7\", \"s_6\", \"s_5\", \"s_9\", \"es_5\"]], [[\"es_4\", \"s_8\", \"s_12\", \"s_11\", \"s_10\", \"s_9\", \"es_5\"]]]},\n\t{pcp: 7, name: \"avb-46\", packetFilter: \"*-avb-46-*\", source: \"es_6\", destination: \"es_1\", trees: [[[\"es_6\", \"s_12\", \"s_11\", \"s_7\", \"s_6\", \"s_5\", \"s_1\", \"es_1\"]], [[\"es_6\", \"s_12\", \"s_8\", \"s_4\", \"s_3\", \"s_2\", \"s_1\", \"es_1\"]]]},\n\t{pcp: 7, name: \"avb-47\", packetFilter: \"*-avb-47-*\", source: \"es_4\", destination: \"es_2\", trees: [[[\"es_4\", \"s_8\", \"s_7\", \"s_3\", \"s_4\", \"es_2\"]], [[\"es_4\", \"s_8\", \"s_4\", \"es_2\"]]]},\n\t{pcp: 7, name: \"avb-48\", packetFilter: \"*-avb-48-*\", source: \"es_1\", destination: \"es_6\", trees: [[[\"es_1\", \"s_1\", \"s_2\", \"s_3\", \"s_4\", \"s_8\", \"s_12\", \"es_6\"]], [[\"es_1\", \"s_1\", \"s_5\", \"s_9\", \"s_10\", \"s_11\", \"s_12\", \"es_6\"]]]},\n\t{pcp: 7, name: \"avb-49\", packetFilter: \"*-avb-49-*\", source: \"es_3\", destination: \"es_2\", trees: [[[\"es_3\", \"s_5\", \"s_1\", \"s_2\", \"s_3\", \"s_4\", \"es_2\"]], [[\"es_3\", \"s_5\", \"s_6\", \"s_7\", \"s_8\", \"s_4\", \"es_2\"]]]},\n\t{pcp: 7, name: \"avb-50\", packetFilter: \"*-avb-50-*\", source: \"es_2\", destination: \"es_1\", trees: [[[\"es_2\", \"s_4\", \"s_3\", \"s_2\", \"s_1\", \"es_1\"]], [[\"es_2\", \"s_4\", \"s_8\", \"s_7\", \"s_6\", \"s_5\", \"s_1\", \"es_1\"]]]},\n\t{pcp: 7, name: \"avb-51\", packetFilter: \"*-avb-51-*\", source: \"es_4\", destination: \"es_2\", trees: [[[\"es_4\", \"s_8\", \"s_7\", \"s_3\", \"s_4\", \"es_2\"]], [[\"es_4\", \"s_8\", \"s_4\", \"es_2\"]]]},\n\t{pcp: 7, name: \"avb-52\", packetFilter: \"*-avb-52-*\", source: \"es_3\", destination: \"es_2\", trees: [[[\"es_3\", \"s_5\", \"s_1\", \"s_2\", \"s_3\", \"s_4\", \"es_2\"]], [[\"es_3\", \"s_5\", \"s_6\", \"s_7\", \"s_8\", \"s_4\", \"es_2\"]]]},\n\t{pcp: 7, name: \"avb-53\", packetFilter: \"*-avb-53-*\", source: \"es_1\", destination: \"es_4\", trees: [[[\"es_1\", \"s_1\", \"s_2\", \"s_3\", \"s_4\", \"s_8\", \"es_4\"]], [[\"es_1\", \"s_1\", \"s_5\", \"s_6\", \"s_7\", \"s_8\", \"es_4\"]]]},\n\t{pcp: 7, name: \"avb-54\", packetFilter: \"*-avb-54-*\", source: \"es_4\", destination: \"es_6\", trees: [[[\"es_4\", \"s_8\", \"s_7\", \"s_11\", \"s_12\", \"es_6\"]], [[\"es_4\", \"s_8\", \"s_12\", \"es_6\"]]]},\n\t{pcp: 7, name: \"avb-55\", packetFilter: \"*-avb-55-*\", source: \"es_5\", destination: \"es_1\", trees: [[[\"es_5\", \"s_9\", \"s_5\", \"s_1\", \"es_1\"]], [[\"es_5\", \"s_9\", \"s_10\", \"s_6\", \"s_2\", \"s_1\", \"es_1\"]]]},\n\t{pcp: 7, name: \"avb-56\", packetFilter: \"*-avb-56-*\", source: \"es_6\", destination: \"es_5\", trees: [[[\"es_6\", \"s_12\", \"s_11\", \"s_10\", \"s_9\", \"es_5\"]], [[\"es_6\", \"s_12\", \"s_8\", \"s_7\", \"s_6\", \"s_5\", \"s_9\", \"es_5\"]]]},\n\t{pcp: 7, name: \"avb-57\", packetFilter: \"*-avb-57-*\", source: \"es_6\", destination: \"es_1\", trees: [[[\"es_6\", \"s_12\", \"s_11\", \"s_10\", \"s_6\", \"s_5\", \"s_1\", \"es_1\"]], [[\"es_6\", \"s_12\", \"s_8\", \"s_4\", \"s_3\", \"s_2\", \"s_1\", \"es_1\"]]]},\n\t{pcp: 7, name: \"avb-58\", packetFilter: \"*-avb-58-*\", source: \"es_4\", destination: \"es_5\", trees: [[[\"es_4\", \"s_8\", \"s_4\", \"s_3\", \"s_2\", \"s_1\", \"s_5\", \"s_9\", \"es_5\"]], [[\"es_4\", \"s_8\", \"s_12\", \"s_11\", \"s_10\", \"s_9\", \"es_5\"]]]},\n\t{pcp: 7, name: \"avb-59\", packetFilter: \"*-avb-59-*\", source: \"es_4\", destination: \"es_6\", trees: [[[\"es_4\", \"s_8\", \"s_7\", \"s_11\", \"s_12\", \"es_6\"]], [[\"es_4\", \"s_8\", \"s_12\", \"es_6\"]]]}]"
config *.gateScheduleConfigurator.typename r438Configurator
config *.gateScheduleConfigurator.gateCycleDuration 2000us

vector 0 partial_mesh.es_1.ethg$o[0].channel busy:vector ETV
attr interpolationmode sample-hold
attr recordingmode vector
attr source channelBusy
vector 1 partial_mesh.s_1.ethg$o[0].channel busy:vector ETV
attr interpolationmode sample-hold
attr recordingmode vector
attr source channelBusy
vector 2 partial_mesh.s_1.ethg$o[1].channel busy:vector ETV
attr interpolationmode sample-hold
attr recordingmode vector
attr source channelBusy
vector 3 partial_mesh.s_2.ethg$o[0].channel busy:vector ETV
attr interpolationmode sample-hold
attr recordingmode vector
attr source channelBusy
vector 4 partial_mesh.s_2.ethg$o[1].channel busy:vector ETV
attr interpolationmode sample-hold
attr recordingmode vector
attr source channelBusy
vector 5 partial_mesh.s_3.ethg$o[0].channel busy:vector ETV
attr interpolationmode sample-hold
attr recordingmode vector
attr source channelBusy
vector 6 partial_mesh.s_3.ethg$o[1].channel busy:vector ETV
attr interpolationmode sample-hold
attr recordingmode vector
attr source channelBusy
vector 7 partial_mesh.s_4.ethg$o[0].channel busy:vector ETV
attr interpolationmode sample-hold
attr recordingmode vector
attr source channelBusy
vector 8 partial_mesh.s_4.ethg$o[1].channel busy:vector ETV
attr interpolationmode sample-hold
attr recordingmode vector
attr source channelBusy
vector 9 partial_mesh.es_2.ethg$o[0].channel busy:vector ETV
attr interpolationmode sample-hold
attr recordingmode vector
attr source channelBusy
vector 10 partial_mesh.es_3.ethg$o[0].channel busy:vector ETV
attr interpolationmode sample-hold
attr recordingmode vector
attr source channelBusy
vector 11 partial_mesh.s_5.ethg$o[0].channel busy:vector ETV
attr interpolationmode sample-hold
attr recordingmode vector
attr source channelBusy
vector 12 partial_mesh.s_5.ethg$o[1].channel busy:vector ETV
attr interpolationmode sample-hold
attr recordingmode vector
attr source channelBusy
vector 13 partial_mesh.s_6.ethg$o[0].channel busy:vector ETV
attr interpolationmode sample-hold
attr recordingmode vector
attr source channelBusy
vector 14 partial_mesh.s_6.ethg$o[1].channel busy:vector ETV
attr interpolationmode sample-hold
attr recordingmode vector
attr source channelBusy
vector 15 partial_mesh.s_7.ethg$o[0].channel busy:vector ETV
attr interpolationmode sample-hold
attr recordingmode vector
attr source channelBusy
vector 16 partial_mesh.s_7.ethg$o[1].channel busy:vector ETV
attr interpolationmode sample-hold
attr recordingmode vector
attr source channelBusy
vector 17 partial_mesh.s_8.ethg$o[0].channel busy:vector ETV
attr interpolationmode sample-hold
attr recordingmode vector
attr source channelBusy
vector 18 partial_mesh.s_8.ethg$o[1].channel busy:vector ETV
attr interpolationmode sample-hold
attr recordingmode vector
attr source channelBusy
vector 19 partial_mesh.es_4.ethg$o[0].channel busy:vector ETV
attr interpolationmode sample-hold
attr recordingmode vector
attr source channelBusy
vector 20 partial_mesh.es_5.ethg$o[0].channel busy:vector ETV
attr interpolationmode sample-hold
attr recordingmode vector
attr source channelBusy
vector 21 partial_mesh.s_9.ethg$o[0].channel busy:vector ETV
attr interpolationmode sample-hold
attr recordingmode vector
attr source channelBusy
vector 22 partial_mesh.s_9.ethg$o[1].channel busy:vector ETV
attr interpolationmode sample-hold
attr recordingmode vector
attr source channelBusy
vector 23 partial_mesh.s_10.ethg$o[0].channel busy:vector ETV
attr interpolationmode sample-hold
attr recordingmode vector
attr source channelBusy
vector 24 partial_mesh.s_10.ethg$o[1].channel busy:vector ETV
attr interpolationmode sample-hold
attr recordingmode vector
attr source channelBusy
vector 25 partial_mesh.s_11.ethg$o[0].channel busy:vector ETV
attr interpolationmode sample-hold
attr recordingmode vector
attr source channelBusy
vector 26 partial_mesh.s_11.ethg$o[1].channel busy:vector ETV
attr interpolationmode sample-hold
attr recordingmode vector
attr source channelBusy
vector 27 partial_mesh.s_12.ethg$o[0].channel busy:vector ETV
attr interpolationmode sample-hold
attr recordingmode vector
attr source channelBusy
vector 28 partial_mesh.s_12.ethg$o[1].channel busy:vector ETV
attr interpolationmode sample-hold
attr recordingmode vector
attr source channelBusy
vector 29 partial_mesh.es_6.ethg$o[0].channel busy:vector ETV
attr interpolationmode sample-hold
attr recordingmode vector
attr source channelBusy
vector 30 partial_mesh.s_1.ethg$o[2].channel busy:vector ETV
attr interpolationmode sample-hold
attr recordingmode vector
attr source channelBusy
vector 31 partial_mesh.s_5.ethg$o[2].channel busy:vector ETV
attr interpolationmode sample-hold
attr recordingmode vector
attr source channelBusy
vector 32 partial_mesh.s_5.ethg$o[3].channel busy:vector ETV
attr interpolationmode sample-hold
attr recordingmode vector
attr source channelBusy
vector 33 partial_mesh.s_9.ethg$o[2].channel busy:vector ETV
attr interpolationmode sample-hold
attr recordingmode vector
attr source channelBusy
vector 34 partial_mesh.s_2.ethg$o[2].channel busy:vector ETV
attr interpolationmode sample-hold
attr recordingmode vector
attr source channelBusy
vector 35 partial_mesh.s_6.ethg$o[2].channel busy:vector ETV
attr interpolationmode sample-hold
attr recordingmode vector
attr source channelBusy
vector 36 partial_mesh.s_6.ethg$o[3].channel busy:vector ETV
attr interpolationmode sample-hold
attr recordingmode vector
attr source channelBusy
vector 37 partial_mesh.s_10.ethg$o[2].channel busy:vector ETV
attr interpolationmode sample-hold
attr recordingmode vector
attr source channelBusy
vector 38 partial_mesh.s_3.ethg$o[2].channel busy:vector ETV
attr interpolationmode sample-hold
attr recordingmode vector
attr source channelBusy
vector 39 partial_mesh.s_7.ethg$o[2].channel busy:vector ETV
attr interpolationmode sample-hold
attr recordingmode vector
attr source channelBusy
vector 40 partial_mesh.s_7.ethg$o[3].channel busy:vector ETV
attr interpolationmode sample-hold
attr recordingmode vector
attr source channelBusy
vector 41 partial_mesh.s_11.ethg$o[2].channel busy:vector ETV
attr interpolationmode sample-hold
attr recordingmode vector
attr source channelBusy
vector 42 partial_mesh.s_4.ethg$o[2].channel busy:vector ETV
attr interpolationmode sample-hold
attr recordingmode vector
attr source channelBusy
vector 43 partial_mesh.s_8.ethg$o[2].channel busy:vector ETV
attr interpolationmode sample-hold
attr recordingmode vector
attr source channelBusy
vector 44 partial_mesh.s_8.ethg$o[3].channel busy:vector ETV
attr interpolationmode sample-hold
attr recordingmode vector
attr source channelBusy
vector 45 partial_mesh.s_12.ethg$o[2].channel busy:vector ETV
attr interpolationmode sample-hold
attr recordingmode vector
attr source channelBusy
vector 46 partial_mesh.es_1.eth[0].phyLayer.transmitter transmitting:vector ETV
attr interpolationmode sample-hold
attr recordingmode vector
attr source "count(transmissionStarted) - count(transmissionEnded)"
attr title "transmitting state"
attr type int
vector 47 partial_mesh.es_1.udp passedUpPk:vector(count) ETV
attr interpolationmode none
attr recordingmode vector(count)
attr source packetSentToUpper
attr title "packets passed up, count"
vector 48 partial_mesh.es_1.udp droppedPkWrongPort:vector(count) ETV
attr interpolationmode none
attr recordingmode vector(count)
attr source packetDropReasonIsNoPortFound(packetDropped)
attr title "packets dropped (wrong port), count"
vector 49 partial_mesh.es_1.udp droppedPkBadChecksum:vector(count) ETV
attr interpolationmode none
attr recordingmode vector(count)
attr source packetDropReasonIsIncorrectlyReceived(packetDropped)
attr title "packets dropped (checksum error), count"
vector 50 partial_mesh.es_2.eth[0].phyLayer.transmitter transmitting:vector ETV
attr interpolationmode sample-hold
attr recordingmode vector
attr source "count(transmissionStarted) - count(transmissionEnded)"
attr title "transmitting state"
attr type int
vector 51 partial_mesh.es_2.udp passedUpPk:vector(count) ETV
attr interpolationmode none
attr recordingmode vector(count)
attr source packetSentToUpper
attr title "packets passed up, count"
vector 52 partial_mesh.es_2.udp droppedPkWrongPort:vector(count) ETV
attr interpolationmode none
attr recordingmode vector(count)
attr source packetDropReasonIsNoPortFound(packetDropped)
attr title "packets dropped (wrong port), count"
vector 53 partial_mesh.es_2.udp droppedPkBadChecksum:vector(count) ETV
attr interpolationmode none
attr recordingmode vector(count)
attr source packetDropReasonIsIncorrectlyReceived(packetDropped)
attr title "packets dropped (checksum error), count"
vector 54 partial_mesh.es_3.eth[0].phyLayer.transmitter transmitting:vector ETV
attr interpolationmode sample-hold
attr recordingmode vector
attr source "count(transmissionStarted) - count(transmissionEnded)"
attr title "transmitting state"
attr type int
vector 55 partial_mesh.es_3.udp passedUpPk:vector(count) ETV
attr interpolationmode none
attr recordingmode vector(count)
attr source packetSentToUpper
attr title "packets passed up, count"
vector 56 partial_mesh.es_3.udp droppedPkWrongPort:vector(count) ETV
attr interpolationmode none
attr recordingmode vector(count)
attr source packetDropReasonIsNoPortFound(packetDropped)
attr title "packets dropped (wrong port), count"
vector 57 partial_mesh.es_3.udp droppedPkBadChecksum:vector(count) ETV
attr interpolationmode none
attr recordingmode vector(count)
attr source packetDropReasonIsIncorrectlyReceived(packetDropped)
attr title "packets dropped (checksum error), count"
vector 58 partial_mesh.es_4.eth[0].phyLayer.transmitter transmitting:vector ETV
attr interpolationmode sample-hold
attr recordingmode vector
attr source "count(transmissionStarted) - count(transmissionEnded)"
attr title "transmitting state"
attr type int
vector 59 partial_mesh.es_4.udp passedUpPk:vector(count) ETV
attr interpolationmode none
attr recordingmode vector(count)
attr source packetSentToUpper
attr title "packets passed up, count"
vector 60 partial_mesh.es_4.udp droppedPkWrongPort:vector(count) ETV
attr interpolationmode none
attr recordingmode vector(count)
attr source packetDropReasonIsNoPortFound(packetDropped)
attr title "packets dropped (wrong port), count"
vector 61 partial_mesh.es_4.udp droppedPkBadChecksum:vector(count) ETV
attr interpolationmode none
attr recordingmode vector(count)
attr source packetDropReasonIsIncorrectlyReceived(packetDropped)
attr title "packets dropped (checksum error), count"
vector 62 partial_mesh.es_5.eth[0].phyLayer.transmitter transmitting:vector ETV
attr interpolationmode sample-hold
attr recordingmode vector
attr source "count(transmissionStarted) - count(transmissionEnded)"
attr title "transmitting state"
attr type int
vector 63 partial_mesh.es_5.udp passedUpPk:vector(count) ETV
attr interpolationmode none
attr recordingmode vector(count)
attr source packetSentToUpper
attr title "packets passed up, count"
vector 64 partial_mesh.es_5.udp droppedPkWrongPort:vector(count) ETV
attr interpolationmode none
attr recordingmode vector(count)
attr source packetDropReasonIsNoPortFound(packetDropped)
attr title "packets dropped (wrong port), count"
vector 65 partial_mesh.es_5.udp droppedPkBadChecksum:vector(count) ETV
attr interpolationmode none
attr recordingmode vector(count)
attr source packetDropReasonIsIncorrectlyReceived(packetDropped)
attr title "packets dropped (checksum error), count"
vector 66 partial_mesh.es_6.eth[0].phyLayer.transmitter transmitting:vector ETV
attr interpolationmode sample-hold
attr recordingmode vector
attr source "count(transmissionStarted) - count(transmissionEnded)"
attr title "transmitting state"
attr type int
vector 67 partial_mesh.es_6.udp passedUpPk:vector(count) ETV
attr interpolationmode none
attr recordingmode vector(count)
attr source packetSentToUpper
attr title "packets passed up, count"
vector 68 partial_mesh.es_6.udp droppedPkWrongPort:vector(count) ETV
attr interpolationmode none
attr recordingmode vector(count)
attr source packetDropReasonIsNoPortFound(packetDropped)
attr title "packets dropped (wrong port), count"
vector 69 partial_mesh.es_6.udp droppedPkBadChecksum:vector(count) ETV
attr interpolationmode none
attr recordingmode vector(count)
attr source packetDropReasonIsIncorrectlyReceived(packetDropped)
attr title "packets dropped (checksum error), count"
vector 70 partial_mesh.s_1.eth[0].phyLayer.transmitter transmitting:vector ETV
attr interpolationmode sample-hold
attr recordingmode vector
attr source "count(transmissionStarted) - count(transmissionEnded)"
attr title "transmitting state"
attr type int
vector 71 partial_mesh.s_1.eth[1].phyLayer.transmitter transmitting:vector ETV
attr interpolationmode sample-hold
attr recordingmode vector
attr source "count(transmissionStarted) - count(transmissionEnded)"
attr title "transmitting state"
attr type int
vector 72 partial_mesh.s_1.eth[2].phyLayer.transmitter transmitting:vector ETV
attr interpolationmode sample-hold
attr recordingmode vector
attr source "count(transmissionStarted) - count(transmissionEnded)"
attr title "transmitting state"
attr type int
vector 73 partial_mesh.s_2.eth[0].phyLayer.transmitter transmitting:vector ETV
attr interpolationmode sample-hold
attr recordingmode vector
attr source "count(transmissionStarted) - count(transmissionEnded)"
attr title "transmitting state"
attr type int
vector 74 partial_mesh.s_2.eth[1].phyLayer.transmitter transmitting:vector ETV
attr interpolationmode sample-hold
attr recordingmode vector
attr source "count(transmissionStarted) - count(transmissionEnded)"
attr title "transmitting state"
attr type int
vector 75 partial_mesh.s_2.eth[2].phyLayer.transmitter transmitting:vector ETV
attr interpolationmode sample-hold
attr recordingmode vector
attr source "count(transmissionStarted) - count(transmissionEnded)"
attr title "transmitting state"
attr type int
vector 76 partial_mesh.s_3.eth[0].phyLayer.transmitter transmitting:vector ETV
attr interpolationmode sample-hold
attr recordingmode vector
attr source "count(transmissionStarted) - count(transmissionEnded)"
attr title "transmitting state"
attr type int
vector 77 partial_mesh.s_3.eth[1].phyLayer.transmitter transmitting:vector ETV
attr interpolationmode sample-hold
attr recordingmode vector
attr source "count(transmissionStarted) - count(transmissionEnded)"
attr title "transmitting state"
attr type int
vector 78 partial_mesh.s_3.eth[2].phyLayer.transmitter transmitting:vector ETV
attr interpolationmode sample-hold
attr recordingmode vector
attr source "count(transmissionStarted) - count(transmissionEnded)"
attr title "transmitting state"
attr type int
vector 79 partial_mesh.s_4.eth[0].phyLayer.transmitter transmitting:vector ETV
attr interpolationmode sample-hold
attr recordingmode vector
attr source "count(transmissionStarted) - count(transmissionEnded)"
attr title "transmitting state"
attr type int
vector 80 partial_mesh.s_4.eth[1].phyLayer.transmitter transmitting:vector ETV
attr interpolationmode sample-hold
attr recordingmode vector
attr source "count(transmissionStarted) - count(transmissionEnded)"
attr title "transmitting state"
attr type int
vector 81 partial_mesh.s_4.eth[2].phyLayer.transmitter transmitting:vector ETV
attr interpolationmode sample-hold
attr recordingmode vector
attr source "count(transmissionStarted) - count(transmissionEnded)"
attr title "transmitting state"
attr type int
vector 82 partial_mesh.s_5.eth[0].phyLayer.transmitter transmitting:vector ETV
attr interpolationmode sample-hold
attr recordingmode vector
attr source "count(transmissionStarted) - count(transmissionEnded)"
attr title "transmitting state"
attr type int
vector 83 partial_mesh.s_5.eth[1].phyLayer.transmitter transmitting:vector ETV
attr interpolationmode sample-hold
attr recordingmode vector
attr source "count(transmissionStarted) - count(transmissionEnded)"
attr title "transmitting state"
attr type int
vector 84 partial_mesh.s_5.eth[2].phyLayer.transmitter transmitting:vector ETV
attr interpolationmode sample-hold
attr recordingmode vector
attr source "count(transmissionStarted) - count(transmissionEnded)"
attr title "transmitting state"
attr type int
vector 85 partial_mesh.s_5.eth[3].phyLayer.transmitter transmitting:vector ETV
attr interpolationmode sample-hold
attr recordingmode vector
attr source "count(transmissionStarted) - count(transmissionEnded)"
attr title "transmitting state"
attr type int
vector 86 partial_mesh.s_6.eth[0].phyLayer.transmitter transmitting:vector ETV
attr interpolationmode sample-hold
attr recordingmode vector
attr source "count(transmissionStarted) - count(transmissionEnded)"
attr title "transmitting state"
attr type int
vector 87 partial_mesh.s_6.eth[1].phyLayer.transmitter transmitting:vector ETV
attr interpolationmode sample-hold
attr recordingmode vector
attr source "count(transmissionStarted) - count(transmissionEnded)"
attr title "transmitting state"
attr type int
vector 88 partial_mesh.s_6.eth[2].phyLayer.transmitter transmitting:vector ETV
attr interpolationmode sample-hold
attr recordingmode vector
attr source "count(transmissionStarted) - count(transmissionEnded)"
attr title "transmitting state"
attr type int
vector 89 partial_mesh.s_6.eth[3].phyLayer.transmitter transmitting:vector ETV
attr interpolationmode sample-hold
attr recordingmode vector
attr source "count(transmissionStarted) - count(transmissionEnded)"
attr title "transmitting state"
attr type int
vector 90 partial_mesh.s_7.eth[0].phyLayer.transmitter transmitting:vector ETV
attr interpolationmode sample-hold
attr recordingmode vector
attr source "count(transmissionStarted) - count(transmissionEnded)"
attr title "transmitting state"
attr type int
vector 91 partial_mesh.s_7.eth[1].phyLayer.transmitter transmitting:vector ETV
attr interpolationmode sample-hold
attr recordingmode vector
attr source "count(transmissionStarted) - count(transmissionEnded)"
attr title "transmitting state"
attr type int
vector 92 partial_mesh.s_7.eth[2].phyLayer.transmitter transmitting:vector ETV
attr interpolationmode sample-hold
attr recordingmode vector
attr source "count(transmissionStarted) - count(transmissionEnded)"
attr title "transmitting state"
attr type int
vector 93 partial_mesh.s_7.eth[3].phyLayer.transmitter transmitting:vector ETV
attr interpolationmode sample-hold
attr recordingmode vector
attr source "count(transmissionStarted) - count(transmissionEnded)"
attr title "transmitting state"
attr type int
vector 94 partial_mesh.s_8.eth[0].phyLayer.transmitter transmitting:vector ETV
attr interpolationmode sample-hold
attr recordingmode vector
attr source "count(transmissionStarted) - count(transmissionEnded)"
attr title "transmitting state"
attr type int
vector 95 partial_mesh.s_8.eth[1].phyLayer.transmitter transmitting:vector ETV
attr interpolationmode sample-hold
attr recordingmode vector
attr source "count(transmissionStarted) - count(transmissionEnded)"
attr title "transmitting state"
attr type int
vector 96 partial_mesh.s_8.eth[2].phyLayer.transmitter transmitting:vector ETV
attr interpolationmode sample-hold
attr recordingmode vector
attr source "count(transmissionStarted) - count(transmissionEnded)"
attr title "transmitting state"
attr type int
vector 97 partial_mesh.s_8.eth[3].phyLayer.transmitter transmitting:vector ETV
attr interpolationmode sample-hold
attr recordingmode vector
attr source "count(transmissionStarted) - count(transmissionEnded)"
attr title "transmitting state"
attr type int
vector 98 partial_mesh.s_9.eth[0].phyLayer.transmitter transmitting:vector ETV
attr interpolationmode sample-hold
attr recordingmode vector
attr source "count(transmissionStarted) - count(transmissionEnded)"
attr title "transmitting state"
attr type int
vector 99 partial_mesh.s_9.eth[1].phyLayer.transmitter transmitting:vector ETV
attr interpolationmode sample-hold
attr recordingmode vector
attr source "count(transmissionStarted) - count(transmissionEnded)"
attr title "transmitting state"
attr type int
vector 100 partial_mesh.s_9.eth[2].phyLayer.transmitter transmitting:vector ETV
attr interpolationmode sample-hold
attr recordingmode vector
attr source "count(transmissionStarted) - count(transmissionEnded)"
attr title "transmitting state"
attr type int
vector 101 partial_mesh.s_10.eth[0].phyLayer.transmitter transmitting:vector ETV
attr interpolationmode sample-hold
attr recordingmode vector
attr source "count(transmissionStarted) - count(transmissionEnded)"
attr title "transmitting state"
attr type int
vector 102 partial_mesh.s_10.eth[1].phyLayer.transmitter transmitting:vector ETV
attr interpolationmode sample-hold
attr recordingmode vector
attr source "count(transmissionStarted) - count(transmissionEnded)"
attr title "transmitting state"
attr type int
vector 103 partial_mesh.s_10.eth[2].phyLayer.transmitter transmitting:vector ETV
attr interpolationmode sample-hold
attr recordingmode vector
attr source "count(transmissionStarted) - count(transmissionEnded)"
attr title "transmitting state"
attr type int
vector 104 partial_mesh.s_11.eth[0].phyLayer.transmitter transmitting:vector ETV
attr interpolationmode sample-hold
attr recordingmode vector
attr source "count(transmissionStarted) - count(transmissionEnded)"
attr title "transmitting state"
attr type int
vector 105 partial_mesh.s_11.eth[1].phyLayer.transmitter transmitting:vector ETV
attr interpolationmode sample-hold
attr recordingmode vector
attr source "count(transmissionStarted) - count(transmissionEnded)"
attr title "transmitting state"
attr type int
vector 106 partial_mesh.s_11.eth[2].phyLayer.transmitter transmitting:vector ETV
attr interpolationmode sample-hold
attr recordingmode vector
attr source "count(transmissionStarted) - count(transmissionEnded)"
attr title "transmitting state"
attr type int
vector 107 partial_mesh.s_12.eth[0].phyLayer.transmitter transmitting:vector ETV
attr interpolationmode sample-hold
attr recordingmode vector
attr source "count(transmissionStarted) - count(transmissionEnded)"
attr title "transmitting state"
attr type int
vector 108 partial_mesh.s_12.eth[1].phyLayer.transmitter transmitting:vector ETV
attr interpolationmode sample-hold
attr recordingmode vector
attr source "count(transmissionStarted) - count(transmissionEnded)"
attr title "transmitting state"
attr type int
vector 109 partial_mesh.s_12.eth[2].phyLayer.transmitter transmitting:vector ETV
attr interpolationmode sample-hold
attr recordingmode vector
attr source "count(transmissionStarted) - count(transmissionEnded)"
attr title "transmitting state"
attr type int
vector 110 partial_mesh.es_1.app[0].source packetLengths:vector ETV
attr interpolationmode none
attr moduledisplaypath partial_mesh.es_1.tsn-4.source
attr recordingmode vector
attr source packetLength(packetPushed)
attr title "packet lengths"
attr unit b
vector 111 partial_mesh.es_1.app[1].source packetLengths:vector ETV
attr interpolationmode none
attr moduledisplaypath partial_mesh.es_1.tsn-6.source
attr recordingmode vector
attr source packetLength(packetPushed)
attr title "packet lengths"
attr unit b
vector 112 partial_mesh.es_1.app[4].source packetLengths:vector ETV
attr interpolationmode none
attr moduledisplaypath partial_mesh.es_1.tsn-17.source
attr recordingmode vector
attr source packetLength(packetPushed)
attr title "packet lengths"
attr unit b
vector 113 partial_mesh.es_1.app[5].source packetLengths:vector ETV
attr interpolationmode none
attr moduledisplaypath partial_mesh.es_1.tsn-19.source
attr recordingmode vector
attr source packetLength(packetPushed)
attr title "packet lengths"
attr unit b
vector 114 partial_mesh.es_1.app[6].source packetLengths:vector ETV
attr interpolationmode none
attr moduledisplaypath partial_mesh.es_1.tsn-21.source
attr recordingmode vector
attr source packetLength(packetPushed)
attr title "packet lengths"
attr unit b
vector 115 partial_mesh.es_1.app[7].source packetLengths:vector ETV
attr interpolationmode none
attr moduledisplaypath partial_mesh.es_1.tsn-28.source
attr recordingmode vector
attr source packetLength(packetPushed)
attr title "packet lengths"
attr unit b
vector 116 partial_mesh.es_1.app[8].source packetLengths:vector ETV
attr interpolationmode none
attr moduledisplaypath partial_mesh.es_1.tsn-29.source
attr recordingmode vector
attr source packetLength(packetPushed)
attr title "packet lengths"
attr unit b
vector 117 partial_mesh.es_1.app[10].source packetLengths:vector ETV
attr interpolationmode none
attr moduledisplaypath partial_mesh.es_1.tsn-39.source
attr recordingmode vector
attr source packetLength(packetPushed)
attr title "packet lengths"
attr unit b
vector 118 partial_mesh.es_1.app[13].source packetLengths:vector ETV
attr interpolationmode none
attr moduledisplaypath partial_mesh.es_1.avb-48.source
attr recordingmode vector
attr source packetLength(packetPushed)
attr title "packet lengths"
attr unit b
vector 119 partial_mesh.es_1.app[15].source packetLengths:vector ETV
attr interpolationmode none
attr moduledisplaypath partial_mesh.es_1.avb-53.source
attr recordingmode vector
attr source packetLength(packetPushed)
attr title "packet lengths"
attr unit b
vector 120 partial_mesh.es_2.app[2].source packetLengths:vector ETV
attr interpolationmode none
attr moduledisplaypath partial_mesh.es_2.tsn-8.source
attr recordingmode vector
attr source packetLength(packetPushed)
attr title "packet lengths"
attr unit b
vector 121 partial_mesh.es_2.app[4].source packetLengths:vector ETV
attr interpolationmode none
attr moduledisplaypath partial_mesh.es_2.tsn-11.source
attr recordingmode vector
attr source packetLength(packetPushed)
attr title "packet lengths"
attr unit b
vector 122 partial_mesh.es_2.app[5].source packetLengths:vector ETV
attr interpolationmode none
attr moduledisplaypath partial_mesh.es_2.tsn-13.source
attr recordingmode vector
attr source packetLength(packetPushed)
attr title "packet lengths"
attr unit b
vector 123 partial_mesh.es_2.app[8].source packetLengths:vector ETV
attr interpolationmode none
attr moduledisplaypath partial_mesh.es_2.tsn-23.source
attr recordingmode vector
attr source packetLength(packetPushed)
attr title "packet lengths"
attr unit b
vector 124 partial_mesh.es_2.app[9].source packetLengths:vector ETV
attr interpolationmode none
attr moduledisplaypath partial_mesh.es_2.tsn-26.source
attr recordingmode vector
attr source packetLength(packetPushed)
attr title "packet lengths"
attr unit b
vector 125 partial_mesh.es_2.app[14].source packetLengths:vector ETV
attr interpolationmode none
attr moduledisplaypath partial_mesh.es_2.avb-42.source
attr recordingmode vector
attr source packetLength(packetPushed)
attr title "packet lengths"
attr unit b
vector 126 partial_mesh.es_2.app[17].source packetLengths:vector ETV
attr interpolationmode none
attr moduledisplaypath partial_mesh.es_2.avb-50.source
attr recordingmode vector
attr source packetLength(packetPushed)
attr title "packet lengths"
attr unit b
vector 127 partial_mesh.es_3.app[2].source packetLengths:vector ETV
attr interpolationmode none
attr moduledisplaypath partial_mesh.es_3.tsn-5.source
attr recordingmode vector
attr source packetLength(packetPushed)
attr title "packet lengths"
attr unit b
vector 128 partial_mesh.es_3.app[4].source packetLengths:vector ETV
attr interpolationmode none
attr moduledisplaypath partial_mesh.es_3.tsn-7.source
attr recordingmode vector
attr source packetLength(packetPushed)
attr title "packet lengths"
attr unit b
vector 129 partial_mesh.es_3.app[5].source packetLengths:vector ETV
attr interpolationmode none
attr moduledisplaypath partial_mesh.es_3.tsn-9.source
attr recordingmode vector
attr source packetLength(packetPushed)
attr title "packet lengths"
attr unit b
vector 130 partial_mesh.es_3.app[6].source packetLengths:vector ETV
attr interpolationmode none
attr moduledisplaypath partial_mesh.es_3.tsn-14.source
attr recordingmode vector
attr source packetLength(packetPushed)
attr title "packet lengths"
attr unit b
vector 131 partial_mesh.es_3.app[7].source packetLengths:vector ETV
attr interpolationmode none
attr moduledisplaypath partial_mesh.es_3.tsn-15.source
attr recordingmode vector
attr source packetLength(packetPushed)
attr title "packet lengths"
attr unit b
vector 132 partial_mesh.es_3.app[9].source packetLengths:vector ETV
attr interpolationmode none
attr moduledisplaypath partial_mesh.es_3.tsn-18.source
attr recordingmode vector
attr source packetLength(packetPushed)
attr title "packet lengths"
attr unit b
vector 133 partial_mesh.es_3.app[16].source packetLengths:vector ETV
attr interpolationmode none
attr moduledisplaypath partial_mesh.es_3.tsn-35.source
attr recordingmode vector
attr source packetLength(packetPushed)
attr title "packet lengths"
attr unit b
vector 134 partial_mesh.es_3.app[18].source packetLengths:vector ETV
attr interpolationmode none
[...]
1257	498151 25 462 462 0.000001232 0.000001232 1 944 944 944 891136
1258	498176 25 462 462 0.000001232 0.000001232 1 944 944 944 891136
1259	498201 25 462 462 0.000001232 0.000001232 1 944 944 944 891136
1260	498226 25 462 462 0.000001232 0.000001232 1 944 944 944 891136
1261	498251 25 462 462 0.000001232 0.000001232 1 944 944 944 891136
1262	498276 25 462 462 0.000001232 0.000001232 1 944 944 944 891136
1263	498301 25 462 462 0.000001232 0.000001232 1 944 944 944 891136
1264	498326 25 462 462 0.000001232 0.000001232 1 944 944 944 891136
1265	498351 25 462 462 0.000001232 0.000001232 1 944 944 944 891136
1266	498376 25 462 462 0.000001232 0.000001232 1 944 944 944 891136
1267	498401 50 462 462 0.000001232 0.000001232 2 944 944 1888 1782272
1268	498451 50 462 462 0.000001232 0.000001232 2 944 944 1888 1782272
1269	498501 50 462 462 0.000001232 0.000001232 2 944 944 1888 1782272
1270	498551 50 462 462 0.000001232 0.000001232 2 976 976 1952 1905152
1271	498601 50 462 462 0.000001232 0.000001232 2 976 976 1952 1905152
1272	498651 52 462 462 0.000001232 0.000001232 2 1024 1024 2048 2097152
1273	498703 52 462 462 0.000001232 0.000001232 2 1024 1024 2048 2097152
1274	498755 52 462 462 0.000001232 0.000001232 2 1136 1136 2272 2580992
1275	498807 52 462 462 0.000001232 0.000001232 2 1136 1136 2272 2580992
1276	498859 52 462 462 0.000001232 0.000001232 2 1136 1136 2272 2580992
1277	498911 52 462 462 0.000001232 0.000001232 2 1136 1136 2272 2580992
1278	498963 52 462 462 0.000001232 0.000001232 2 1168 1168 2336 2728448
1279	499015 26 462 462 0.000001232 0.000001232 1 1168 1168 1168 1364224
1280	499041 26 462 462 0.000001232 0.000001232 1 1168 1168 1168 1364224
1281	499067 26 462 462 0.000001232 0.000001232 1 1168 1168 1168 1364224
1282	499093 23 462 462 0.000001232 0.000001232 1 0 0 0 0
1283	499116 26 462 462 0.000001232 0.000001232 1 1168 1168 1168 1364224
1284	499142 26 462 462 0.000001232 0.000001232 1 1168 1168 1168 1364224
1285	499168 26 462 462 0.000001232 0.000001232 1 1168 1168 1168 1364224
1286	499194 26 462 462 0.000001232 0.000001232 1 1168 1168 1168 1364224
1287	499220 23 462 462 0.000001232 0.000001232 1 0 0 0 0
1288	499243 26 462 462 0.000001232 0.000001232 1 1168 1168 1168 1364224
1289	499269 26 462 462 0.000001232 0.000001232 1 1168 1168 1168 1364224
1290	499295 26 462 462 0.000001232 0.000001232 1 1168 1168 1168 1364224
1291	499321 26 462 462 0.000001232 0.000001232 1 1168 1168 1168 1364224
1292	499347 26 462 462 0.000001232 0.000001232 1 1168 1168 1168 1364224
1293	499373 26 462 462 0.000001232 0.000001232 1 1168 1168 1168 1364224
1294	499399 26 462 462 0.000001232 0.000001232 1 1232 1232 1232 1517824
1295	499425 26 462 462 0.000001232 0.000001232 1 1232 1232 1232 1517824
1296	499451 26 462 462 0.000001232 0.000001232 1 1232 1232 1232 1517824
1297	499477 23 462 462 0.000001232 0.000001232 1 0 0 0 0
1298	499500 23 462 462 0.000001232 0.000001232 1 0 0 0 0
1299	499523 23 462 462 0.000001232 0.000001232 1 0 0 0 0
1300	499546 23 462 462 0.000001232 0.000001232 1 0 0 0 0
1301	499569 26 462 462 0.000001232 0.000001232 1 1168 1168 1168 1364224
1302	499595 26 462 462 0.000001232 0.000001232 1 1168 1168 1168 1364224
1303	499621 26 462 462 0.000001232 0.000001232 1 1168 1168 1168 1364224
1304	499647 23 462 462 0.000001232 0.000001232 1 0 0 0 0
1305	499670 26 462 462 0.000001232 0.000001232 1 1168 1168 1168 1364224
1306	499696 26 462 462 0.000001232 0.000001232 1 1168 1168 1168 1364224
1307	499722 26 462 462 0.000001232 0.000001232 1 1168 1168 1168 1364224
1308	499748 26 462 462 0.000001232 0.000001232 1 1168 1168 1168 1364224
1309	499774 23 462 462 0.000001232 0.000001232 1 0 0 0 0
1310	499797 26 462 462 0.000001232 0.000001232 1 1168 1168 1168 1364224
1311	499823 26 462 462 0.000001232 0.000001232 1 1168 1168 1168 1364224
1312	499849 26 462 462 0.000001232 0.000001232 1 1168 1168 1168 1364224
1313	499875 26 462 462 0.000001232 0.000001232 1 1168 1168 1168 1364224
1314	499901 26 462 462 0.000001232 0.000001232 1 1168 1168 1168 1364224
1315	499927 26 462 462 0.000001232 0.000001232 1 1168 1168 1168 1364224
1316	499953 26 462 462 0.000001232 0.000001232 1 1232 1232 1232 1517824
1317	499979 26 462 462 0.000001232 0.000001232 1 1232 1232 1232 1517824
1318	500005 26 462 462 0.000001232 0.000001232 1 1232 1232 1232 1517824
1319	500031 23 462 462 0.000001232 0.000001232 1 0 0 0 0
1320	500054 23 462 462 0.000001232 0.000001232 1 0 0 0 0
1321	500077 23 462 462 0.000001232 0.000001232 1 0 0 0 0
1322	500100 23 462 462 0.000001232 0.000001232 1 0 0 0 0
1323	500123 31 463 463 0.000001232 0.000001232 1 1.232e-06 1.232e-06 1.232e-06 1.517824e-12
1324	500154 30 466 466 0.000001752 0.000001752 1 7.52e-07 7.52e-07 7.52e-07 5.65504e-13
1325	500184 25 466 466 0.000001752 0.000001752 1 752 752 752 565504
1326	500209 25 466 466 0.000001752 0.000001752 1 752 752 752 565504
1327	500234 25 466 466 0.000001752 0.000001752 1 752 752 752 565504
1328	500259 25 466 466 0.000001752 0.000001752 1 688 688 688 473344
1329	500284 25 466 466 0.000001752 0.000001752 1 688 688 688 473344
1330	500309 25 466 466 0.000001752 0.000001752 1 688 688 688 473344
1331	500334 25 466 466 0.000001752 0.000001752 1 688 688 688 473344
1332	500359 25 466 466 0.000001752 0.000001752 1 688 688 688 473344
1333	500384 25 466 466 0.000001752 0.000001752 1 688 688 688 473344
1334	500409 25 466 466 0.000001752 0.000001752 1 656 656 656 430336
1335	500434 25 466 466 0.000001752 0.000001752 1 656 656 656 430336
1336	500459 25 466 466 0.000001752 0.000001752 1 544 544 544 295936
1337	500484 25 466 466 0.000001752 0.000001752 1 544 544 544 295936
1338	500509 25 466 466 0.000001752 0.000001752 1 496 496 496 246016
1339	500534 25 466 466 0.000001752 0.000001752 1 496 496 496 246016
1340	500559 25 466 466 0.000001752 0.000001752 1 464 464 464 215296
1341	500584 25 466 466 0.000001752 0.000001752 1 464 464 464 215296
1342	500609 25 466 466 0.000001752 0.000001752 1 464 464 464 215296
1343	500634 25 466 466 0.000001752 0.000001752 1 464 464 464 215296
1344	500659 25 466 466 0.000001752 0.000001752 1 464 464 464 215296
1345	500684 25 466 466 0.000001752 0.000001752 1 464 464 464 215296
1346	500709 25 466 466 0.000001752 0.000001752 1 464 464 464 215296
1347	500734 25 466 466 0.000001752 0.000001752 1 464 464 464 215296
1348	500759 25 466 466 0.000001752 0.000001752 1 464 464 464 215296
1349	500784 25 466 466 0.000001752 0.000001752 1 464 464 464 215296
1350	500809 25 466 466 0.000001752 0.000001752 1 464 464 464 215296
1351	500834 25 466 466 0.000001752 0.000001752 1 464 464 464 215296
1352	500859 25 466 466 0.000001752 0.000001752 1 464 464 464 215296
1353	500884 25 466 466 0.000001752 0.000001752 1 464 464 464 215296
1354	500909 25 466 466 0.000001752 0.000001752 1 496 496 496 246016
1355	500934 25 466 466 0.000001752 0.000001752 1 496 496 496 246016
1356	500959 25 466 466 0.000001752 0.000001752 1 544 544 544 295936
1357	500984 25 466 466 0.000001752 0.000001752 1 544 544 544 295936
1358	501009 25 466 466 0.000001752 0.000001752 1 656 656 656 430336
1359	501034 25 466 466 0.000001752 0.000001752 1 656 656 656 430336
1360	501059 25 466 466 0.000001752 0.000001752 1 656 656 656 430336
1361	501084 25 466 466 0.000001752 0.000001752 1 656 656 656 430336
1362	501109 25 466 466 0.000001752 0.000001752 1 688 688 688 473344
1363	501134 25 466 466 0.000001752 0.000001752 1 688 688 688 473344
1364	501159 25 466 466 0.000001752 0.000001752 1 688 688 688 473344
1365	501184 25 466 466 0.000001752 0.000001752 1 688 688 688 473344
1366	501209 23 466 466 0.000001752 0.000001752 1 1 1 1 1
1367	501232 25 466 466 0.000001752 0.000001752 1 688 688 688 473344
1368	501257 23 466 466 0.000001752 0.000001752 1 1 1 1 1
1369	501280 25 466 466 0.000001752 0.000001752 1 688 688 688 473344
1370	501305 30 467 467 0.000001752 0.000001752 1 7.52e-07 7.52e-07 7.52e-07 5.65504e-13
1371	501335 30 468 468 0.000001752 0.000001752 1 7.52e-07 7.52e-07 7.52e-07 5.65504e-13
1372	501365 25 468 468 0.000001752 0.000001752 1 752 752 752 565504
1373	501390 25 468 468 0.000001752 0.000001752 1 752 752 752 565504
1374	501415 25 468 468 0.000001752 0.000001752 1 752 752 752 565504
1375	501440 25 468 468 0.000001752 0.000001752 1 688 688 688 473344
1376	501465 25 468 468 0.000001752 0.000001752 1 688 688 688 473344
1377	501490 25 468 468 0.000001752 0.000001752 1 688 688 688 473344
1378	501515 25 468 468 0.000001752 0.000001752 1 688 688 688 473344
1379	501540 25 468 468 0.000001752 0.000001752 1 688 688 688 473344
1380	501565 25 468 468 0.000001752 0.000001752 1 688 688 688 473344
1381	501590 25 468 468 0.000001752 0.000001752 1 688 688 688 473344
1382	501615 25 468 468 0.000001752 0.000001752 1 688 688 688 473344
1383	501640 23 468 468 0.000001752 0.000001752 1 1 1 1 1
1384	501663 25 468 468 0.000001752 0.000001752 1 688 688 688 473344
1385	501688 23 468 468 0.000001752 0.000001752 1 1 1 1 1
1386	501711 25 468 468 0.000001752 0.000001752 1 688 688 688 473344
1387	501736 30 469 469 0.000001752 0.000001752 1 7.52e-07 7.52e-07 7.52e-07 5.65504e-13
1388	501766 30 472 472 0.000001832 0.000001832 1 8.32e-07 8.32e-07 8.32e-07 6.92224e-13
1389	501796 25 472 472 0.000001832 0.000001832 1 832 832 832 692224
1390	501821 25 472 472 0.000001832 0.000001832 1 832 832 832 692224
1391	501846 25 472 472 0.000001832 0.000001832 1 832 832 832 692224
1392	501871 25 472 472 0.000001832 0.000001832 1 768 768 768 589824
1393	501896 25 472 472 0.000001832 0.000001832 1 768 768 768 589824
1394	501921 25 472 472 0.000001832 0.000001832 1 768 768 768 589824
1395	501946 25 472 472 0.000001832 0.000001832 1 768 768 768 589824
1396	501971 25 472 472 0.000001832 0.000001832 1 768 768 768 589824
1397	501996 25 472 472 0.000001832 0.000001832 1 768 768 768 589824
1398	502021 25 472 472 0.000001832 0.000001832 1 736 736 736 541696
1399	502046 25 472 472 0.000001832 0.000001832 1 736 736 736 541696
1400	502071 25 472 472 0.000001832 0.000001832 1 624 624 624 389376
1401	502096 25 472 472 0.000001832 0.000001832 1 624 624 624 389376
1402	502121 25 472 472 0.000001832 0.000001832 1 576 576 576 331776
1403	502146 25 472 472 0.000001832 0.000001832 1 576 576 576 331776
1404	502171 25 472 472 0.000001832 0.000001832 1 544 544 544 295936
1405	502196 25 472 472 0.000001832 0.000001832 1 544 544 544 295936
1406	502221 25 472 472 0.000001832 0.000001832 1 544 544 544 295936
1407	502246 25 472 472 0.000001832 0.000001832 1 544 544 544 295936
1408	502271 25 472 472 0.000001832 0.000001832 1 544 544 544 295936
1409	502296 25 472 472 0.000001832 0.000001832 1 544 544 544 295936
1410	502321 25 472 472 0.000001832 0.000001832 1 544 544 544 295936
1411	502346 25 472 472 0.000001832 0.000001832 1 544 544 544 295936
1412	502371 25 472 472 0.000001832 0.000001832 1 544 544 544 295936
1413	502396 25 472 472 0.000001832 0.000001832 1 544 544 544 295936
1414	502421 25 472 472 0.000001832 0.000001832 1 544 544 544 295936
1415	502446 25 472 472 0.000001832 0.000001832 1 544 544 544 295936
1416	502471 25 472 472 0.000001832 0.000001832 1 544 544 544 295936
1417	502496 25 472 472 0.000001832 0.000001832 1 544 544 544 295936
1418	502521 25 472 472 0.000001832 0.000001832 1 576 576 576 331776
1419	502546 25 472 472 0.000001832 0.000001832 1 576 576 576 331776
1420	502571 25 472 472 0.000001832 0.000001832 1 624 624 624 389376
1421	502596 25 472 472 0.000001832 0.000001832 1 624 624 624 389376
1422	502621 25 472 472 0.000001832 0.000001832 1 736 736 736 541696
1423	502646 25 472 472 0.000001832 0.000001832 1 736 736 736 541696
1424	502671 25 472 472 0.000001832 0.000001832 1 736 736 736 541696
1425	502696 25 472 472 0.000001832 0.000001832 1 736 736 736 541696
1426	502721 25 472 472 0.000001832 0.000001832 1 768 768 768 589824
1427	502746 25 472 472 0.000001832 0.000001832 1 768 768 768 589824
1428	502771 25 472 472 0.000001832 0.000001832 1 768 768 768 589824
1429	502796 25 472 472 0.000001832 0.000001832 1 768 768 768 589824
1430	502821 23 472 472 0.000001832 0.000001832 1 1 1 1 1
1431	502844 25 472 472 0.000001832 0.000001832 1 768 768 768 589824
1432	502869 23 472 472 0.000001832 0.000001832 1 1 1 1 1
1433	502892 25 472 472 0.000001832 0.000001832 1 768 768 768 589824
1434	502917 30 473 473 0.000001832 0.000001832 1 8.32e-07 8.32e-07 8.32e-07 6.92224e-13
1435	502947 30 474 474 0.000001832 0.000001832 1 8.32e-07 8.32e-07 8.32e-07 6.92224e-13
1436	502977 25 474 474 0.000001832 0.000001832 1 832 832 832 692224
1437	503002 25 474 474 0.000001832 0.000001832 1 832 832 832 692224
1438	503027 25 474 474 0.000001832 0.000001832 1 832 832 832 692224
1439	503052 25 474 474 0.000001832 0.000001832 1 768 768 768 589824
1440	503077 25 474 474 0.000001832 0.000001832 1 768 768 768 589824
1441	503102 25 474 474 0.000001832 0.000001832 1 768 768 768 589824
1442	503127 25 474 474 0.000001832 0.000001832 1 768 768 768 589824
1443	503152 25 474 474 0.000001832 0.000001832 1 768 768 768 589824
1444	503177 25 474 474 0.000001832 0.000001832 1 768 768 768 589824
1445	503202 25 474 474 0.000001832 0.000001832 1 768 768 768 589824
1446	503227 25 474 474 0.000001832 0.000001832 1 768 768 768 589824
1447	503252 23 474 474 0.000001832 0.000001832 1 0 0 0 0
1448	503275 25 474 474 0.000001832 0.000001832 1 768 768 768 589824
1449	503300 25 474 474 0.000001832 0.000001832 1 768 768 768 589824
1450	503325 25 474 474 0.000001832 0.000001832 1 768 768 768 589824
1451	503350 25 474 474 0.000001832 0.000001832 1 768 768 768 589824
1452	503375 23 474 474 0.000001832 0.000001832 1 0 0 0 0
1453	503398 25 474 474 0.000001832 0.000001832 1 768 768 768 589824
1454	503423 25 474 474 0.000001832 0.000001832 1 768 768 768 589824
1455	503448 25 474 474 0.000001832 0.000001832 1 768 768 768 589824
1456	503473 25 474 474 0.000001832 0.000001832 1 768 768 768 589824
1457	503498 25 474 474 0.000001832 0.000001832 1 768 768 768 589824
1458	503523 25 474 474 0.000001832 0.000001832 1 768 768 768 589824
1459	503548 25 474 474 0.000001832 0.000001832 1 832 832 832 692224
1460	503573 25 474 474 0.000001832 0.000001832 1 832 832 832 692224
1461	503598 25 474 474 0.000001832 0.000001832 1 832 832 832 692224
1462	503623 23 474 474 0.000001832 0.000001832 1 0 0 0 0
1463	503646 23 474 474 0.000001832 0.000001832 1 0 0 0 0
1464	503669 23 474 474 0.000001832 0.000001832 1 0 0 0 0
1465	503692 23 474 474 0.000001832 0.000001832 1 0 0 0 0
1466	503715 30 475 475 0.000001832 0.000001832 1 8.32e-07 8.32e-07 8.32e-07 6.92224e-13
1467	503745 30 481 481 0.000001912 0.000001912 1 9.12e-07 9.12e-07 9.12e-07 8.31744e-13
1468	503775 25 481 481 0.000001912 0.000001912 1 912 912 912 831744
1469	503800 25 481 481 0.000001912 0.000001912 1 912 912 912 831744
1470	503825 25 481 481 0.000001912 0.000001912 1 912 912 912 831744
1471	503850 25 481 481 0.000001912 0.000001912 1 848 848 848 719104
1472	503875 25 481 481 0.000001912 0.000001912 1 848 848 848 719104
1473	503900 25 481 481 0.000001912 0.000001912 1 848 848 848 719104
1474	503925 25 481 481 0.000001912 0.000001912 1 848 848 848 719104
1475	503950 25 481 481 0.000001912 0.000001912 1 848 848 848 719104
1476	503975 25 481 481 0.000001912 0.000001912 1 848 848 848 719104
1477	504000 25 481 481 0.000001912 0.000001912 1 816 816 816 665856
1478	504025 25 481 481 0.000001912 0.000001912 1 816 816 816 665856
1479	504050 25 481 481 0.000001912 0.000001912 1 704 704 704 495616
1480	504075 25 481 481 0.000001912 0.000001912 1 704 704 704 495616
1481	504100 25 481 481 0.000001912 0.000001912 1 656 656 656 430336
1482	504125 25 481 481 0.000001912 0.000001912 1 656 656 656 430336
1483	504150 25 481 481 0.000001912 0.000001912 1 624 624 624 389376
1484	504175 25 481 481 0.000001912 0.000001912 1 624 624 624 389376
1485	504200 25 481 481 0.000001912 0.000001912 1 624 624 624 389376
1486	504225 25 481 481 0.000001912 0.000001912 1 624 624 624 389376
1487	504250 25 481 481 0.000001912 0.000001912 1 624 624 624 389376
1488	504275 25 481 481 0.000001912 0.000001912 1 624 624 624 389376
1489	504300 25 481 481 0.000001912 0.000001912 1 624 624 624 389376
1490	504325 25 481 481 0.000001912 0.000001912 1 624 624 624 389376
1491	504350 25 481 481 0.000001912 0.000001912 1 624 624 624 389376
1492	504375 25 481 481 0.000001912 0.000001912 1 624 624 624 389376
1493	504400 25 481 481 0.000001912 0.000001912 1 624 624 624 389376
1494	504425 25 481 481 0.000001912 0.000001912 1 624 624 624 389376
1495	504450 25 481 481 0.000001912 0.000001912 1 624 624 624 389376
1496	504475 25 481 481 0.000001912 0.000001912 1 624 624 624 389376
1497	504500 25 481 481 0.000001912 0.000001912 1 656 656 656 430336
1498	504525 25 481 481 0.000001912 0.000001912 1 656 656 656 430336
1499	504550 25 481 481 0.000001912 0.000001912 1 704 704 704 495616
1500	504575 25 481 481 0.000001912 0.000001912 1 704 704 704 495616
1501	504600 25 481 481 0.000001912 0.000001912 1 816 816 816 665856
1502	504625 25 481 481 0.000001912 0.000001912 1 816 816 816 665856
1503	504650 25 481 481 0.000001912 0.000001912 1 816 816 816 665856
1504	504675 25 481 481 0.000001912 0.000001912 1 816 816 816 665856
1505	504700 25 481 481 0.000001912 0.000001912 1 848 848 848 719104
1506	504725 25 481 481 0.000001912 0.000001912 1 848 848 848 719104
1507	504750 25 481 481 0.000001912 0.000001912 1 848 848 848 719104
1508	504775 25 481 481 0.000001912 0.000001912 1 848 848 848 719104
1509	504800 23 481 481 0.000001912 0.000001912 1 1 1 1 1
1510	504823 25 481 481 0.000001912 0.000001912 1 848 848 848 719104
1511	504848 23 481 481 0.000001912 0.000001912 1 1 1 1 1
1512	504871 25 481 481 0.000001912 0.000001912 1 848 848 848 719104
1513	504896 30 482 482 0.000001912 0.000001912 1 9.12e-07 9.12e-07 9.12e-07 8.31744e-13
1514	504926 24 489 489 0.000002 0.000002 1 2e-06 2e-06 2e-06 4e-12
1515	504950 23 489 489 0.000002 0.000002 1 1008 1008 1008 1016064
1516	504973 23 489 489 0.000002 0.000002 1 1008 1008 1008 1016064
1517	504996 23 489 489 0.000002 0.000002 1 1008 1008 1008 1016064
1518	505019 24 491 491 0.000002 0.000002 1 2e-06 2e-06 2e-06 4e-12
1519	505043 22 491 491 0.000002 0.000002 1 848 848 848 719104
1520	505065 22 491 491 0.000002 0.000002 1 848 848 848 719104
1521	505087 22 491 491 0.000002 0.000002 1 848 848 848 719104
0	505109 17 495 495 0.000002 0.000002 1 0 0 0 0
1	505126 10 495 495 0 0 1 0 0 0 0
2	505136 17 495 495 0.000002 0.000002 1 0 0 0 0
3	505153 10 495 495 0 0 1 0 0 0 0
4	505163 10 495 495 0 0 1 0 0 0 0
5	505173 10 495 495 0 0 1 0 0 0 0
6	505183 10 495 495 0 0 1 0 0 0 0
7	505193 17 495 495 0.000002 0.000002 1 0 0 0 0
8	505210 10 495 495 0 0 1 0 0 0 0
9	505220 17 495 495 0.000002 0.000002 1 0 0 0 0
10	505237 18 495 495 0.000002 0.000002 1 0 0 0 0
11	505255 11 495 495 0 0 1 0 0 0 0
12	505266 18 495 495 0.000002 0.000002 1 0 0 0 0
13	505284 11 495 495 0 0 1 0 0 0 0
14	505295 11 495 495 0 0 1 0 0 0 0
15	505306 11 495 495 0 0 1 0 0 0 0
16	505317 11 495 495 0 0 1 0 0 0 0
17	505328 21 495 495 0.000001912 0.000001912 1 0 0 0 0
18	505349 11 495 495 0 0 1 0 0 0 0
19	505360 20 495 495 0.00000192 0.00000192 1 0 0 0 0
20	505380 18 495 495 0.000002 0.000002 1 0 0 0 0
21	505398 11 495 495 0 0 1 0 0 0 0
22	505409 18 495 495 0.000002 0.000002 1 0 0 0 0
23	505427 11 495 495 0 0 1 0 0 0 0
24	505438 11 495 495 0 0 1 0 0 0 0
25	505449 11 495 495 0 0 1 0 0 0 0
26	505460 11 495 495 0 0 1 0 0 0 0
27	505471 18 495 495 0.000002 0.000002 1 0 0 0 0
28	505489 11 495 495 0 0 1 0 0 0 0
29	505500 18 495 495 0.000002 0.000002 1 0 0 0 0
30	505518 18 495 495 0.000002 0.000002 1 0 0 0 0
31	505536 11 495 495 0 0 1 0 0 0 0
32	505547 11 495 495 0 0 1 0 0 0 0
33	505558 18 495 495 0.000002 0.000002 1 0 0 0 0
34	505576 11 495 495 0 0 1 0 0 0 0
35	505587 11 495 495 0 0 1 0 0 0 0
36	505598 11 495 495 0 0 1 0 0 0 0
37	505609 11 495 495 0 0 1 0 0 0 0
38	505620 11 495 495 0 0 1 0 0 0 0
39	505631 11 495 495 0 0 1 0 0 0 0
40	505642 11 495 495 0 0 1 0 0 0 0
41	505653 11 495 495 0 0 1 0 0 0 0
42	505664 18 495 495 0.000002 0.000002 1 0 0 0 0
43	505682 18 495 495 0.000002 0.000002 1 0 0 0 0
44	505700 11 495 495 0 0 1 0 0 0 0
45	505711 18 495 495 0.000002 0.000002 1 0 0 0 0

