file 6460991 1660124940                                         
version 3
run General-0-20220810-17:48:52-11778
attr configname General
attr datetime 20220810-17:48:52
attr datetimef 20220810-174852
attr experiment General
attr inifile auto-generated.ini
attr iterationvars ""
attr iterationvarsd ""
attr iterationvarsf ""
attr measurement ""
attr network partial_mesh
attr processid 11778
attr repetition 0
attr replication #0
attr resultdir results
attr runnumber 0
attr seedset 0
config image-path ../../inet/images
config network partial_mesh
config sim-time-limit 1ms
config record-eventlog false
config *.*.eth[*].bitrate 1Gbps
config **.visualizer.interfaceTableVisualizer.displayInterfaceTables true
config partial_mesh.es_1.numApps 18
config partial_mesh.es_1.hasOutgoingStreams true
config partial_mesh.es_1.hasIncomingStreams true
config partial_mesh.es_2.numApps 20
config partial_mesh.es_2.hasOutgoingStreams true
config partial_mesh.es_2.hasIncomingStreams true
config partial_mesh.es_3.numApps 21
config partial_mesh.es_3.hasOutgoingStreams true
config partial_mesh.es_3.hasIncomingStreams true
config partial_mesh.es_4.numApps 21
config partial_mesh.es_4.hasOutgoingStreams true
config partial_mesh.es_4.hasIncomingStreams true
config partial_mesh.es_5.numApps 17
config partial_mesh.es_5.hasOutgoingStreams true
config partial_mesh.es_5.hasIncomingStreams true
config partial_mesh.es_6.numApps 23
config partial_mesh.es_6.hasOutgoingStreams true
config partial_mesh.es_6.hasIncomingStreams true
config partial_mesh.es_*.hasEgressTrafficShaping true
config partial_mesh.s_*.hasIncomingStreams true
config partial_mesh.s_*.hasOutgoingStreams true
config partial_mesh.s_*.hasEgressTrafficShaping true
config partial_mesh.es_6.app[0].typename UdpSourceApp
config partial_mesh.es_6.app[0].display-name tsn-0
config partial_mesh.es_6.app[0].io.destAddress "\"es_2\""
config partial_mesh.es_6.app[0].io.destPort 5000
config partial_mesh.es_6.app[0].source.packetNameFormat "\"%M-%m-%c\""
config partial_mesh.es_6.app[0].source.packetLength 40B
config partial_mesh.es_6.app[0].source.productionInterval 100us
config partial_mesh.es_2.app[0].typename UdpSinkApp
config partial_mesh.es_2.app[0].display-name tsn-0
config partial_mesh.es_2.app[0].io.localPort 5000
config partial_mesh.es_5.app[0].typename UdpSourceApp
config partial_mesh.es_5.app[0].display-name tsn-1
config partial_mesh.es_5.app[0].io.destAddress "\"es_6\""
config partial_mesh.es_5.app[0].io.destPort 5001
config partial_mesh.es_5.app[0].source.packetNameFormat "\"%M-%m-%c\""
config partial_mesh.es_5.app[0].source.packetLength 50B
config partial_mesh.es_5.app[0].source.productionInterval 2000us
config partial_mesh.es_6.app[1].typename UdpSinkApp
config partial_mesh.es_6.app[1].display-name tsn-1
config partial_mesh.es_6.app[1].io.localPort 5001
config partial_mesh.es_4.app[0].typename UdpSourceApp
config partial_mesh.es_4.app[0].display-name tsn-2
config partial_mesh.es_4.app[0].io.destAddress "\"es_3\""
config partial_mesh.es_4.app[0].io.destPort 5002
config partial_mesh.es_4.app[0].source.packetNameFormat "\"%M-%m-%c\""
config partial_mesh.es_4.app[0].source.packetLength 50B
config partial_mesh.es_4.app[0].source.productionInterval 1000us
config partial_mesh.es_3.app[0].typename UdpSinkApp
config partial_mesh.es_3.app[0].display-name tsn-2
config partial_mesh.es_3.app[0].io.localPort 5002
config partial_mesh.es_4.app[1].typename UdpSourceApp
config partial_mesh.es_4.app[1].display-name tsn-3
config partial_mesh.es_4.app[1].io.destAddress "\"es_3\""
config partial_mesh.es_4.app[1].io.destPort 5003
config partial_mesh.es_4.app[1].source.packetNameFormat "\"%M-%m-%c\""
config partial_mesh.es_4.app[1].source.packetLength 50B
config partial_mesh.es_4.app[1].source.productionInterval 200us
config partial_mesh.es_3.app[1].typename UdpSinkApp
config partial_mesh.es_3.app[1].display-name tsn-3
config partial_mesh.es_3.app[1].io.localPort 5003
config partial_mesh.es_1.app[0].typename UdpSourceApp
config partial_mesh.es_1.app[0].display-name tsn-4
config partial_mesh.es_1.app[0].io.destAddress "\"es_4\""
config partial_mesh.es_1.app[0].io.destPort 5004
config partial_mesh.es_1.app[0].source.packetNameFormat "\"%M-%m-%c\""
config partial_mesh.es_1.app[0].source.packetLength 80B
config partial_mesh.es_1.app[0].source.productionInterval 200us
config partial_mesh.es_4.app[2].typename UdpSinkApp
config partial_mesh.es_4.app[2].display-name tsn-4
config partial_mesh.es_4.app[2].io.localPort 5004
config partial_mesh.es_3.app[2].typename UdpSourceApp
config partial_mesh.es_3.app[2].display-name tsn-5
config partial_mesh.es_3.app[2].io.destAddress "\"es_6\""
config partial_mesh.es_3.app[2].io.destPort 5005
config partial_mesh.es_3.app[2].source.packetNameFormat "\"%M-%m-%c\""
config partial_mesh.es_3.app[2].source.packetLength 70B
config partial_mesh.es_3.app[2].source.productionInterval 400us
config partial_mesh.es_6.app[2].typename UdpSinkApp
config partial_mesh.es_6.app[2].display-name tsn-5
config partial_mesh.es_6.app[2].io.localPort 5005
config partial_mesh.es_1.app[1].typename UdpSourceApp
config partial_mesh.es_1.app[1].display-name tsn-6
config partial_mesh.es_1.app[1].io.destAddress "\"es_3\""
config partial_mesh.es_1.app[1].io.destPort 5006
config partial_mesh.es_1.app[1].source.packetNameFormat "\"%M-%m-%c\""
config partial_mesh.es_1.app[1].source.packetLength 40B
config partial_mesh.es_1.app[1].source.productionInterval 200us
config partial_mesh.es_3.app[3].typename UdpSinkApp
config partial_mesh.es_3.app[3].display-name tsn-6
config partial_mesh.es_3.app[3].io.localPort 5006
config partial_mesh.es_3.app[4].typename UdpSourceApp
config partial_mesh.es_3.app[4].display-name tsn-7
config partial_mesh.es_3.app[4].io.destAddress "\"es_2\""
config partial_mesh.es_3.app[4].io.destPort 5007
config partial_mesh.es_3.app[4].source.packetNameFormat "\"%M-%m-%c\""
config partial_mesh.es_3.app[4].source.packetLength 50B
config partial_mesh.es_3.app[4].source.productionInterval 500us
config partial_mesh.es_2.app[1].typename UdpSinkApp
config partial_mesh.es_2.app[1].display-name tsn-7
config partial_mesh.es_2.app[1].io.localPort 5007
config partial_mesh.es_2.app[2].typename UdpSourceApp
config partial_mesh.es_2.app[2].display-name tsn-8
config partial_mesh.es_2.app[2].io.destAddress "\"es_5\""
config partial_mesh.es_2.app[2].io.destPort 5008
config partial_mesh.es_2.app[2].source.packetNameFormat "\"%M-%m-%c\""
config partial_mesh.es_2.app[2].source.packetLength 90B
config partial_mesh.es_2.app[2].source.productionInterval 500us
config partial_mesh.es_5.app[1].typename UdpSinkApp
config partial_mesh.es_5.app[1].display-name tsn-8
config partial_mesh.es_5.app[1].io.localPort 5008
config partial_mesh.es_3.app[5].typename UdpSourceApp
config partial_mesh.es_3.app[5].display-name tsn-9
config partial_mesh.es_3.app[5].io.destAddress "\"es_6\""
config partial_mesh.es_3.app[5].io.destPort 5009
config partial_mesh.es_3.app[5].source.packetNameFormat "\"%M-%m-%c\""
config partial_mesh.es_3.app[5].source.packetLength 90B
config partial_mesh.es_3.app[5].source.productionInterval 1000us
config partial_mesh.es_6.app[3].typename UdpSinkApp
config partial_mesh.es_6.app[3].display-name tsn-9
config partial_mesh.es_6.app[3].io.localPort 5009
config partial_mesh.es_4.app[3].typename UdpSourceApp
config partial_mesh.es_4.app[3].display-name tsn-10
config partial_mesh.es_4.app[3].io.destAddress "\"es_2\""
config partial_mesh.es_4.app[3].io.destPort 5010
config partial_mesh.es_4.app[3].source.packetNameFormat "\"%M-%m-%c\""
config partial_mesh.es_4.app[3].source.packetLength 30B
config partial_mesh.es_4.app[3].source.productionInterval 200us
config partial_mesh.es_2.app[3].typename UdpSinkApp
config partial_mesh.es_2.app[3].display-name tsn-10
config partial_mesh.es_2.app[3].io.localPort 5010
config partial_mesh.es_2.app[4].typename UdpSourceApp
config partial_mesh.es_2.app[4].display-name tsn-11
config partial_mesh.es_2.app[4].io.destAddress "\"es_1\""
config partial_mesh.es_2.app[4].io.destPort 5011
config partial_mesh.es_2.app[4].source.packetNameFormat "\"%M-%m-%c\""
config partial_mesh.es_2.app[4].source.packetLength 60B
config partial_mesh.es_2.app[4].source.productionInterval 100us
config partial_mesh.es_1.app[2].typename UdpSinkApp
config partial_mesh.es_1.app[2].display-name tsn-11
config partial_mesh.es_1.app[2].io.localPort 5011
config partial_mesh.es_6.app[4].typename UdpSourceApp
config partial_mesh.es_6.app[4].display-name tsn-12
config partial_mesh.es_6.app[4].io.destAddress "\"es_4\""
config partial_mesh.es_6.app[4].io.destPort 5012
config partial_mesh.es_6.app[4].source.packetNameFormat "\"%M-%m-%c\""
config partial_mesh.es_6.app[4].source.packetLength 50B
config partial_mesh.es_6.app[4].source.productionInterval 200us
config partial_mesh.es_4.app[4].typename UdpSinkApp
config partial_mesh.es_4.app[4].display-name tsn-12
config partial_mesh.es_4.app[4].io.localPort 5012
config partial_mesh.es_2.app[5].typename UdpSourceApp
config partial_mesh.es_2.app[5].display-name tsn-13
config partial_mesh.es_2.app[5].io.destAddress "\"es_1\""
config partial_mesh.es_2.app[5].io.destPort 5013
config partial_mesh.es_2.app[5].source.packetNameFormat "\"%M-%m-%c\""
config partial_mesh.es_2.app[5].source.packetLength 60B
config partial_mesh.es_2.app[5].source.productionInterval 500us
config partial_mesh.es_1.app[3].typename UdpSinkApp
config partial_mesh.es_1.app[3].display-name tsn-13
config partial_mesh.es_1.app[3].io.localPort 5013
config partial_mesh.es_3.app[6].typename UdpSourceApp
config partial_mesh.es_3.app[6].display-name tsn-14
config partial_mesh.es_3.app[6].io.destAddress "\"es_2\""
config partial_mesh.es_3.app[6].io.destPort 5014
config partial_mesh.es_3.app[6].source.packetNameFormat "\"%M-%m-%c\""
config partial_mesh.es_3.app[6].source.packetLength 100B
config partial_mesh.es_3.app[6].source.productionInterval 400us
config partial_mesh.es_2.app[6].typename UdpSinkApp
config partial_mesh.es_2.app[6].display-name tsn-14
config partial_mesh.es_2.app[6].io.localPort 5014
config partial_mesh.es_3.app[7].typename UdpSourceApp
config partial_mesh.es_3.app[7].display-name tsn-15
config partial_mesh.es_3.app[7].io.destAddress "\"es_5\""
config partial_mesh.es_3.app[7].io.destPort 5015
config partial_mesh.es_3.app[7].source.packetNameFormat "\"%M-%m-%c\""
config partial_mesh.es_3.app[7].source.packetLength 80B
config partial_mesh.es_3.app[7].source.productionInterval 400us
config partial_mesh.es_5.app[2].typename UdpSinkApp
config partial_mesh.es_5.app[2].display-name tsn-15
config partial_mesh.es_5.app[2].io.localPort 5015
config partial_mesh.es_6.app[5].typename UdpSourceApp
config partial_mesh.es_6.app[5].display-name tsn-16
config partial_mesh.es_6.app[5].io.destAddress "\"es_2\""
config partial_mesh.es_6.app[5].io.destPort 5016
config partial_mesh.es_6.app[5].source.packetNameFormat "\"%M-%m-%c\""
config partial_mesh.es_6.app[5].source.packetLength 30B
config partial_mesh.es_6.app[5].source.productionInterval 100us
config partial_mesh.es_2.app[7].typename UdpSinkApp
config partial_mesh.es_2.app[7].display-name tsn-16
config partial_mesh.es_2.app[7].io.localPort 5016
config partial_mesh.es_1.app[4].typename UdpSourceApp
config partial_mesh.es_1.app[4].display-name tsn-17
config partial_mesh.es_1.app[4].io.destAddress "\"es_3\""
config partial_mesh.es_1.app[4].io.destPort 5017
config partial_mesh.es_1.app[4].source.packetNameFormat "\"%M-%m-%c\""
config partial_mesh.es_1.app[4].source.packetLength 50B
config partial_mesh.es_1.app[4].source.productionInterval 400us
config partial_mesh.es_3.app[8].typename UdpSinkApp
config partial_mesh.es_3.app[8].display-name tsn-17
config partial_mesh.es_3.app[8].io.localPort 5017
config partial_mesh.es_3.app[9].typename UdpSourceApp
config partial_mesh.es_3.app[9].display-name tsn-18
config partial_mesh.es_3.app[9].io.destAddress "\"es_4\""
config partial_mesh.es_3.app[9].io.destPort 5018
config partial_mesh.es_3.app[9].source.packetNameFormat "\"%M-%m-%c\""
config partial_mesh.es_3.app[9].source.packetLength 60B
config partial_mesh.es_3.app[9].source.productionInterval 1000us
config partial_mesh.es_4.app[5].typename UdpSinkApp
config partial_mesh.es_4.app[5].display-name tsn-18
config partial_mesh.es_4.app[5].io.localPort 5018
config partial_mesh.es_1.app[5].typename UdpSourceApp
config partial_mesh.es_1.app[5].display-name tsn-19
config partial_mesh.es_1.app[5].io.destAddress "\"es_5\""
config partial_mesh.es_1.app[5].io.destPort 5019
config partial_mesh.es_1.app[5].source.packetNameFormat "\"%M-%m-%c\""
config partial_mesh.es_1.app[5].source.packetLength 30B
config partial_mesh.es_1.app[5].source.productionInterval 500us
config partial_mesh.es_5.app[3].typename UdpSinkApp
config partial_mesh.es_5.app[3].display-name tsn-19
config partial_mesh.es_5.app[3].io.localPort 5019
config partial_mesh.es_6.app[6].typename UdpSourceApp
config partial_mesh.es_6.app[6].display-name tsn-20
config partial_mesh.es_6.app[6].io.destAddress "\"es_5\""
config partial_mesh.es_6.app[6].io.destPort 5020
config partial_mesh.es_6.app[6].source.packetNameFormat "\"%M-%m-%c\""
config partial_mesh.es_6.app[6].source.packetLength 70B
config partial_mesh.es_6.app[6].source.productionInterval 2000us
config partial_mesh.es_5.app[4].typename UdpSinkApp
config partial_mesh.es_5.app[4].display-name tsn-20
config partial_mesh.es_5.app[4].io.localPort 5020
config partial_mesh.es_1.app[6].typename UdpSourceApp
config partial_mesh.es_1.app[6].display-name tsn-21
config partial_mesh.es_1.app[6].io.destAddress "\"es_6\""
config partial_mesh.es_1.app[6].io.destPort 5021
config partial_mesh.es_1.app[6].source.packetNameFormat "\"%M-%m-%c\""
config partial_mesh.es_1.app[6].source.packetLength 90B
config partial_mesh.es_1.app[6].source.productionInterval 1000us
config partial_mesh.es_6.app[7].typename UdpSinkApp
config partial_mesh.es_6.app[7].display-name tsn-21
config partial_mesh.es_6.app[7].io.localPort 5021
config partial_mesh.es_5.app[5].typename UdpSourceApp
config partial_mesh.es_5.app[5].display-name tsn-22
config partial_mesh.es_5.app[5].io.destAddress "\"es_3\""
config partial_mesh.es_5.app[5].io.destPort 5022
config partial_mesh.es_5.app[5].source.packetNameFormat "\"%M-%m-%c\""
config partial_mesh.es_5.app[5].source.packetLength 30B
config partial_mesh.es_5.app[5].source.productionInterval 500us
config partial_mesh.es_3.app[10].typename UdpSinkApp
config partial_mesh.es_3.app[10].display-name tsn-22
config partial_mesh.es_3.app[10].io.localPort 5022
config partial_mesh.es_2.app[8].typename UdpSourceApp
config partial_mesh.es_2.app[8].display-name tsn-23
config partial_mesh.es_2.app[8].io.destAddress "\"es_4\""
config partial_mesh.es_2.app[8].io.destPort 5023
config partial_mesh.es_2.app[8].source.packetNameFormat "\"%M-%m-%c\""
config partial_mesh.es_2.app[8].source.packetLength 30B
config partial_mesh.es_2.app[8].source.productionInterval 400us
config partial_mesh.es_4.app[6].typename UdpSinkApp
config partial_mesh.es_4.app[6].display-name tsn-23
config partial_mesh.es_4.app[6].io.localPort 5023
config partial_mesh.es_6.app[8].typename UdpSourceApp
config partial_mesh.es_6.app[8].display-name tsn-24
config partial_mesh.es_6.app[8].io.destAddress "\"es_3\""
config partial_mesh.es_6.app[8].io.destPort 5024
config partial_mesh.es_6.app[8].source.packetNameFormat "\"%M-%m-%c\""
config partial_mesh.es_6.app[8].source.packetLength 50B
config partial_mesh.es_6.app[8].source.productionInterval 500us
config partial_mesh.es_3.app[11].typename UdpSinkApp
config partial_mesh.es_3.app[11].display-name tsn-24
config partial_mesh.es_3.app[11].io.localPort 5024
config partial_mesh.es_4.app[7].typename UdpSourceApp
config partial_mesh.es_4.app[7].display-name tsn-25
config partial_mesh.es_4.app[7].io.destAddress "\"es_3\""
config partial_mesh.es_4.app[7].io.destPort 5025
config partial_mesh.es_4.app[7].source.packetNameFormat "\"%M-%m-%c\""
config partial_mesh.es_4.app[7].source.packetLength 70B
config partial_mesh.es_4.app[7].source.productionInterval 400us
config partial_mesh.es_3.app[12].typename UdpSinkApp
config partial_mesh.es_3.app[12].display-name tsn-25
config partial_mesh.es_3.app[12].io.localPort 5025
config partial_mesh.es_2.app[9].typename UdpSourceApp
config partial_mesh.es_2.app[9].display-name tsn-26
config partial_mesh.es_2.app[9].io.destAddress "\"es_3\""
config partial_mesh.es_2.app[9].io.destPort 5026
config partial_mesh.es_2.app[9].source.packetNameFormat "\"%M-%m-%c\""
config partial_mesh.es_2.app[9].source.packetLength 70B
config partial_mesh.es_2.app[9].source.productionInterval 200us
config partial_mesh.es_3.app[13].typename UdpSinkApp
config partial_mesh.es_3.app[13].display-name tsn-26
config partial_mesh.es_3.app[13].io.localPort 5026
config partial_mesh.es_4.app[8].typename UdpSourceApp
config partial_mesh.es_4.app[8].display-name tsn-27
config partial_mesh.es_4.app[8].io.destAddress "\"es_6\""
config partial_mesh.es_4.app[8].io.destPort 5027
config partial_mesh.es_4.app[8].source.packetNameFormat "\"%M-%m-%c\""
config partial_mesh.es_4.app[8].source.packetLength 40B
config partial_mesh.es_4.app[8].source.productionInterval 200us
config partial_mesh.es_6.app[9].typename UdpSinkApp
config partial_mesh.es_6.app[9].display-name tsn-27
config partial_mesh.es_6.app[9].io.localPort 5027
config partial_mesh.es_1.app[7].typename UdpSourceApp
config partial_mesh.es_1.app[7].display-name tsn-28
config partial_mesh.es_1.app[7].io.destAddress "\"es_2\""
config partial_mesh.es_1.app[7].io.destPort 5028
config partial_mesh.es_1.app[7].source.packetNameFormat "\"%M-%m-%c\""
config partial_mesh.es_1.app[7].source.packetLength 100B
config partial_mesh.es_1.app[7].source.productionInterval 2000us
config partial_mesh.es_2.app[10].typename UdpSinkApp
config partial_mesh.es_2.app[10].display-name tsn-28
config partial_mesh.es_2.app[10].io.localPort 5028
config partial_mesh.es_1.app[8].typename UdpSourceApp
config partial_mesh.es_1.app[8].display-name tsn-29
config partial_mesh.es_1.app[8].io.destAddress "\"es_3\""
config partial_mesh.es_1.app[8].io.destPort 5029
config partial_mesh.es_1.app[8].source.packetNameFormat "\"%M-%m-%c\""
config partial_mesh.es_1.app[8].source.packetLength 70B
config partial_mesh.es_1.app[8].source.productionInterval 400us
config partial_mesh.es_3.app[14].typename UdpSinkApp
config partial_mesh.es_3.app[14].display-name tsn-29
config partial_mesh.es_3.app[14].io.localPort 5029
config partial_mesh.es_6.app[10].typename UdpSourceApp
config partial_mesh.es_6.app[10].display-name tsn-30
config partial_mesh.es_6.app[10].io.destAddress "\"es_4\""
config partial_mesh.es_6.app[10].io.destPort 5030
config partial_mesh.es_6.app[10].source.packetNameFormat "\"%M-%m-%c\""
config partial_mesh.es_6.app[10].source.packetLength 90B
config partial_mesh.es_6.app[10].source.productionInterval 2000us
config partial_mesh.es_4.app[9].typename UdpSinkApp
config partial_mesh.es_4.app[9].display-name tsn-30
config partial_mesh.es_4.app[9].io.localPort 5030
config partial_mesh.es_4.app[10].typename UdpSourceApp
config partial_mesh.es_4.app[10].display-name tsn-31
config partial_mesh.es_4.app[10].io.destAddress "\"es_2\""
config partial_mesh.es_4.app[10].io.destPort 5031
config partial_mesh.es_4.app[10].source.packetNameFormat "\"%M-%m-%c\""
config partial_mesh.es_4.app[10].source.packetLength 70B
config partial_mesh.es_4.app[10].source.productionInterval 200us
config partial_mesh.es_2.app[11].typename UdpSinkApp
config partial_mesh.es_2.app[11].display-name tsn-31
config partial_mesh.es_2.app[11].io.localPort 5031
config partial_mesh.es_6.app[11].typename UdpSourceApp
config partial_mesh.es_6.app[11].display-name tsn-32
config partial_mesh.es_6.app[11].io.destAddress "\"es_5\""
config partial_mesh.es_6.app[11].io.destPort 5032
config partial_mesh.es_6.app[11].source.packetNameFormat "\"%M-%m-%c\""
config partial_mesh.es_6.app[11].source.packetLength 70B
config partial_mesh.es_6.app[11].source.productionInterval 400us
config partial_mesh.es_5.app[6].typename UdpSinkApp
config partial_mesh.es_5.app[6].display-name tsn-32
config partial_mesh.es_5.app[6].io.localPort 5032
config partial_mesh.es_5.app[7].typename UdpSourceApp
config partial_mesh.es_5.app[7].display-name tsn-33
config partial_mesh.es_5.app[7].io.destAddress "\"es_4\""
config partial_mesh.es_5.app[7].io.destPort 5033
config partial_mesh.es_5.app[7].source.packetNameFormat "\"%M-%m-%c\""
config partial_mesh.es_5.app[7].source.packetLength 60B
config partial_mesh.es_5.app[7].source.productionInterval 500us
config partial_mesh.es_4.app[11].typename UdpSinkApp
config partial_mesh.es_4.app[11].display-name tsn-33
config partial_mesh.es_4.app[11].io.localPort 5033
config partial_mesh.es_5.app[8].typename UdpSourceApp
config partial_mesh.es_5.app[8].display-name tsn-34
config partial_mesh.es_5.app[8].io.destAddress "\"es_3\""
config partial_mesh.es_5.app[8].io.destPort 5034
config partial_mesh.es_5.app[8].source.packetNameFormat "\"%M-%m-%c\""
config partial_mesh.es_5.app[8].source.packetLength 50B
config partial_mesh.es_5.app[8].source.productionInterval 200us
config partial_mesh.es_3.app[15].typename UdpSinkApp
config partial_mesh.es_3.app[15].display-name tsn-34
config partial_mesh.es_3.app[15].io.localPort 5034
config partial_mesh.es_3.app[16].typename UdpSourceApp
config partial_mesh.es_3.app[16].display-name tsn-35
config partial_mesh.es_3.app[16].io.destAddress "\"es_2\""
config partial_mesh.es_3.app[16].io.destPort 5035
config partial_mesh.es_3.app[16].source.packetNameFormat "\"%M-%m-%c\""
config partial_mesh.es_3.app[16].source.packetLength 50B
config partial_mesh.es_3.app[16].source.productionInterval 100us
config partial_mesh.es_2.app[12].typename UdpSinkApp
config partial_mesh.es_2.app[12].display-name tsn-35
config partial_mesh.es_2.app[12].io.localPort 5035
config partial_mesh.es_6.app[12].typename UdpSourceApp
config partial_mesh.es_6.app[12].display-name tsn-36
config partial_mesh.es_6.app[12].io.destAddress "\"es_1\""
config partial_mesh.es_6.app[12].io.destPort 5036
config partial_mesh.es_6.app[12].source.packetNameFormat "\"%M-%m-%c\""
config partial_mesh.es_6.app[12].source.packetLength 40B
config partial_mesh.es_6.app[12].source.productionInterval 2000us
config partial_mesh.es_1.app[9].typename UdpSinkApp
config partial_mesh.es_1.app[9].display-name tsn-36
config partial_mesh.es_1.app[9].io.localPort 5036
config partial_mesh.es_6.app[13].typename UdpSourceApp
config partial_mesh.es_6.app[13].display-name tsn-37
config partial_mesh.es_6.app[13].io.destAddress "\"es_4\""
config partial_mesh.es_6.app[13].io.destPort 5037
config partial_mesh.es_6.app[13].source.packetNameFormat "\"%M-%m-%c\""
config partial_mesh.es_6.app[13].source.packetLength 50B
config partial_mesh.es_6.app[13].source.productionInterval 100us
config partial_mesh.es_4.app[12].typename UdpSinkApp
config partial_mesh.es_4.app[12].display-name tsn-37
config partial_mesh.es_4.app[12].io.localPort 5037
config partial_mesh.es_5.app[9].typename UdpSourceApp
config partial_mesh.es_5.app[9].display-name tsn-38
config partial_mesh.es_5.app[9].io.destAddress "\"es_2\""
config partial_mesh.es_5.app[9].io.destPort 5038
config partial_mesh.es_5.app[9].source.packetNameFormat "\"%M-%m-%c\""
config partial_mesh.es_5.app[9].source.packetLength 40B
config partial_mesh.es_5.app[9].source.productionInterval 1000us
config partial_mesh.es_2.app[13].typename UdpSinkApp
config partial_mesh.es_2.app[13].display-name tsn-38
config partial_mesh.es_2.app[13].io.localPort 5038
config partial_mesh.es_1.app[10].typename UdpSourceApp
config partial_mesh.es_1.app[10].display-name tsn-39
config partial_mesh.es_1.app[10].io.destAddress "\"es_5\""
config partial_mesh.es_1.app[10].io.destPort 5039
config partial_mesh.es_1.app[10].source.packetNameFormat "\"%M-%m-%c\""
config partial_mesh.es_1.app[10].source.packetLength 30B
config partial_mesh.es_1.app[10].source.productionInterval 2000us
config partial_mesh.es_5.app[10].typename UdpSinkApp
config partial_mesh.es_5.app[10].display-name tsn-39
config partial_mesh.es_5.app[10].io.localPort 5039
config partial_mesh.es_5.app[11].typename UdpSourceApp
config partial_mesh.es_5.app[11].display-name avb-40
config partial_mesh.es_5.app[11].io.destAddress "\"es_6\""
config partial_mesh.es_5.app[11].io.destPort 5040
config partial_mesh.es_5.app[11].source.packetNameFormat "\"%M-%m-%c\""
config partial_mesh.es_5.app[11].source.packetLength 1200B
config partial_mesh.es_5.app[11].source.productionInterval 125us
config partial_mesh.es_6.app[14].typename UdpSinkApp
config partial_mesh.es_6.app[14].display-name avb-40
config partial_mesh.es_6.app[14].io.localPort 5040
config partial_mesh.es_6.app[15].typename UdpSourceApp
config partial_mesh.es_6.app[15].display-name avb-41
config partial_mesh.es_6.app[15].io.destAddress "\"es_3\""
config partial_mesh.es_6.app[15].io.destPort 5041
config partial_mesh.es_6.app[15].source.packetNameFormat "\"%M-%m-%c\""
config partial_mesh.es_6.app[15].source.packetLength 1500B
config partial_mesh.es_6.app[15].source.productionInterval 125us
config partial_mesh.es_3.app[17].typename UdpSinkApp
config partial_mesh.es_3.app[17].display-name avb-41
config partial_mesh.es_3.app[17].io.localPort 5041
config partial_mesh.es_2.app[14].typename UdpSourceApp
config partial_mesh.es_2.app[14].display-name avb-42
config partial_mesh.es_2.app[14].io.destAddress "\"es_6\""
config partial_mesh.es_2.app[14].io.destPort 5042
config partial_mesh.es_2.app[14].source.packetNameFormat "\"%M-%m-%c\""
config partial_mesh.es_2.app[14].source.packetLength 1000B
config partial_mesh.es_2.app[14].source.productionInterval 125us
config partial_mesh.es_6.app[16].typename UdpSinkApp
config partial_mesh.es_6.app[16].display-name avb-42
config partial_mesh.es_6.app[16].io.localPort 5042
config partial_mesh.es_3.app[18].typename UdpSourceApp
config partial_mesh.es_3.app[18].display-name avb-43
config partial_mesh.es_3.app[18].io.destAddress "\"es_1\""
config partial_mesh.es_3.app[18].io.destPort 5043
config partial_mesh.es_3.app[18].source.packetNameFormat "\"%M-%m-%c\""
config partial_mesh.es_3.app[18].source.packetLength 1100B
config partial_mesh.es_3.app[18].source.productionInterval 125us
config partial_mesh.es_1.app[11].typename UdpSinkApp
config partial_mesh.es_1.app[11].display-name avb-43
config partial_mesh.es_1.app[11].io.localPort 5043
config partial_mesh.es_5.app[12].typename UdpSourceApp
config partial_mesh.es_5.app[12].display-name avb-44
config partial_mesh.es_5.app[12].io.destAddress "\"es_4\""
config partial_mesh.es_5.app[12].io.destPort 5044
config partial_mesh.es_5.app[12].source.packetNameFormat "\"%M-%m-%c\""
config partial_mesh.es_5.app[12].source.packetLength 1100B
config partial_mesh.es_5.app[12].source.productionInterval 125us
config partial_mesh.es_4.app[13].typename UdpSinkApp
config partial_mesh.es_4.app[13].display-name avb-44
config partial_mesh.es_4.app[13].io.localPort 5044
config partial_mesh.es_4.app[14].typename UdpSourceApp
config partial_mesh.es_4.app[14].display-name avb-45
config partial_mesh.es_4.app[14].io.destAddress "\"es_5\""
config partial_mesh.es_4.app[14].io.destPort 5045
config partial_mesh.es_4.app[14].source.packetNameFormat "\"%M-%m-%c\""
config partial_mesh.es_4.app[14].source.packetLength 1000B
config partial_mesh.es_4.app[14].source.productionInterval 125us
config partial_mesh.es_5.app[13].typename UdpSinkApp
config partial_mesh.es_5.app[13].display-name avb-45
config partial_mesh.es_5.app[13].io.localPort 5045
config partial_mesh.es_6.app[17].typename UdpSourceApp
config partial_mesh.es_6.app[17].display-name avb-46
config partial_mesh.es_6.app[17].io.destAddress "\"es_1\""
config partial_mesh.es_6.app[17].io.destPort 5046
config partial_mesh.es_6.app[17].source.packetNameFormat "\"%M-%m-%c\""
config partial_mesh.es_6.app[17].source.packetLength 1100B
config partial_mesh.es_6.app[17].source.productionInterval 125us
config partial_mesh.es_1.app[12].typename UdpSinkApp
config partial_mesh.es_1.app[12].display-name avb-46
config partial_mesh.es_1.app[12].io.localPort 5046
config partial_mesh.es_4.app[15].typename UdpSourceApp
config partial_mesh.es_4.app[15].display-name avb-47
config partial_mesh.es_4.app[15].io.destAddress "\"es_2\""
config partial_mesh.es_4.app[15].io.destPort 5047
config partial_mesh.es_4.app[15].source.packetNameFormat "\"%M-%m-%c\""
config partial_mesh.es_4.app[15].source.packetLength 1400B
config partial_mesh.es_4.app[15].source.productionInterval 125us
config partial_mesh.es_2.app[15].typename UdpSinkApp
config partial_mesh.es_2.app[15].display-name avb-47
config partial_mesh.es_2.app[15].io.localPort 5047
config partial_mesh.es_1.app[13].typename UdpSourceApp
config partial_mesh.es_1.app[13].display-name avb-48
config partial_mesh.es_1.app[13].io.destAddress "\"es_6\""
config partial_mesh.es_1.app[13].io.destPort 5048
config partial_mesh.es_1.app[13].source.packetNameFormat "\"%M-%m-%c\""
config partial_mesh.es_1.app[13].source.packetLength 1500B
config partial_mesh.es_1.app[13].source.productionInterval 125us
config partial_mesh.es_6.app[18].typename UdpSinkApp
config partial_mesh.es_6.app[18].display-name avb-48
config partial_mesh.es_6.app[18].io.localPort 5048
config partial_mesh.es_3.app[19].typename UdpSourceApp
config partial_mesh.es_3.app[19].display-name avb-49
config partial_mesh.es_3.app[19].io.destAddress "\"es_2\""
config partial_mesh.es_3.app[19].io.destPort 5049
config partial_mesh.es_3.app[19].source.packetNameFormat "\"%M-%m-%c\""
config partial_mesh.es_3.app[19].source.packetLength 1000B
config partial_mesh.es_3.app[19].source.productionInterval 125us
config partial_mesh.es_2.app[16].typename UdpSinkApp
config partial_mesh.es_2.app[16].display-name avb-49
config partial_mesh.es_2.app[16].io.localPort 5049
config partial_mesh.es_2.app[17].typename UdpSourceApp
config partial_mesh.es_2.app[17].display-name avb-50
config partial_mesh.es_2.app[17].io.destAddress "\"es_1\""
config partial_mesh.es_2.app[17].io.destPort 5050
config partial_mesh.es_2.app[17].source.packetNameFormat "\"%M-%m-%c\""
config partial_mesh.es_2.app[17].source.packetLength 1000B
config partial_mesh.es_2.app[17].source.productionInterval 125us
config partial_mesh.es_1.app[14].typename UdpSinkApp
config partial_mesh.es_1.app[14].display-name avb-50
config partial_mesh.es_1.app[14].io.localPort 5050
config partial_mesh.es_4.app[16].typename UdpSourceApp
config partial_mesh.es_4.app[16].display-name avb-51
config partial_mesh.es_4.app[16].io.destAddress "\"es_2\""
config partial_mesh.es_4.app[16].io.destPort 5051
config partial_mesh.es_4.app[16].source.packetNameFormat "\"%M-%m-%c\""
config partial_mesh.es_4.app[16].source.packetLength 1400B
config partial_mesh.es_4.app[16].source.productionInterval 125us
config partial_mesh.es_2.app[18].typename UdpSinkApp
config partial_mesh.es_2.app[18].display-name avb-51
config partial_mesh.es_2.app[18].io.localPort 5051
config partial_mesh.es_3.app[20].typename UdpSourceApp
config partial_mesh.es_3.app[20].display-name avb-52
config partial_mesh.es_3.app[20].io.destAddress "\"es_2\""
config partial_mesh.es_3.app[20].io.destPort 5052
config partial_mesh.es_3.app[20].source.packetNameFormat "\"%M-%m-%c\""
config partial_mesh.es_3.app[20].source.packetLength 1200B
config partial_mesh.es_3.app[20].source.productionInterval 125us
config partial_mesh.es_2.app[19].typename UdpSinkApp
config partial_mesh.es_2.app[19].display-name avb-52
config partial_mesh.es_2.app[19].io.localPort 5052
config partial_mesh.es_1.app[15].typename UdpSourceApp
config partial_mesh.es_1.app[15].display-name avb-53
config partial_mesh.es_1.app[15].io.destAddress "\"es_4\""
config partial_mesh.es_1.app[15].io.destPort 5053
config partial_mesh.es_1.app[15].source.packetNameFormat "\"%M-%m-%c\""
config partial_mesh.es_1.app[15].source.packetLength 1200B
config partial_mesh.es_1.app[15].source.productionInterval 125us
config partial_mesh.es_4.app[17].typename UdpSinkApp
config partial_mesh.es_4.app[17].display-name avb-53
config partial_mesh.es_4.app[17].io.localPort 5053
config partial_mesh.es_4.app[18].typename UdpSourceApp
config partial_mesh.es_4.app[18].display-name avb-54
config partial_mesh.es_4.app[18].io.destAddress "\"es_6\""
config partial_mesh.es_4.app[18].io.destPort 5054
config partial_mesh.es_4.app[18].source.packetNameFormat "\"%M-%m-%c\""
config partial_mesh.es_4.app[18].source.packetLength 1500B
config partial_mesh.es_4.app[18].source.productionInterval 125us
config partial_mesh.es_6.app[19].typename UdpSinkApp
config partial_mesh.es_6.app[19].display-name avb-54
config partial_mesh.es_6.app[19].io.localPort 5054
config partial_mesh.es_5.app[14].typename UdpSourceApp
config partial_mesh.es_5.app[14].display-name avb-55
config partial_mesh.es_5.app[14].io.destAddress "\"es_1\""
config partial_mesh.es_5.app[14].io.destPort 5055
config partial_mesh.es_5.app[14].source.packetNameFormat "\"%M-%m-%c\""
config partial_mesh.es_5.app[14].source.packetLength 1400B
config partial_mesh.es_5.app[14].source.productionInterval 125us
config partial_mesh.es_1.app[16].typename UdpSinkApp
config partial_mesh.es_1.app[16].display-name avb-55
config partial_mesh.es_1.app[16].io.localPort 5055
config partial_mesh.es_6.app[20].typename UdpSourceApp
config partial_mesh.es_6.app[20].display-name avb-56
config partial_mesh.es_6.app[20].io.destAddress "\"es_5\""
config partial_mesh.es_6.app[20].io.destPort 5056
config partial_mesh.es_6.app[20].source.packetNameFormat "\"%M-%m-%c\""
config partial_mesh.es_6.app[20].source.packetLength 1100B
config partial_mesh.es_6.app[20].source.productionInterval 125us
config partial_mesh.es_5.app[15].typename UdpSinkApp
config partial_mesh.es_5.app[15].display-name avb-56
config partial_mesh.es_5.app[15].io.localPort 5056
config partial_mesh.es_6.app[21].typename UdpSourceApp
config partial_mesh.es_6.app[21].display-name avb-57
config partial_mesh.es_6.app[21].io.destAddress "\"es_1\""
config partial_mesh.es_6.app[21].io.destPort 5057
config partial_mesh.es_6.app[21].source.packetNameFormat "\"%M-%m-%c\""
config partial_mesh.es_6.app[21].source.packetLength 1100B
config partial_mesh.es_6.app[21].source.productionInterval 125us
config partial_mesh.es_1.app[17].typename UdpSinkApp
config partial_mesh.es_1.app[17].display-name avb-57
config partial_mesh.es_1.app[17].io.localPort 5057
config partial_mesh.es_4.app[19].typename UdpSourceApp
config partial_mesh.es_4.app[19].display-name avb-58
config partial_mesh.es_4.app[19].io.destAddress "\"es_5\""
config partial_mesh.es_4.app[19].io.destPort 5058
config partial_mesh.es_4.app[19].source.packetNameFormat "\"%M-%m-%c\""
config partial_mesh.es_4.app[19].source.packetLength 1300B
config partial_mesh.es_4.app[19].source.productionInterval 125us
config partial_mesh.es_5.app[16].typename UdpSinkApp
config partial_mesh.es_5.app[16].display-name avb-58
config partial_mesh.es_5.app[16].io.localPort 5058
config partial_mesh.es_4.app[20].typename UdpSourceApp
config partial_mesh.es_4.app[20].display-name avb-59
config partial_mesh.es_4.app[20].io.destAddress "\"es_6\""
config partial_mesh.es_4.app[20].io.destPort 5059
config partial_mesh.es_4.app[20].source.packetNameFormat "\"%M-%m-%c\""
config partial_mesh.es_4.app[20].source.packetLength 1000B
config partial_mesh.es_4.app[20].source.productionInterval 125us
config partial_mesh.es_6.app[22].typename UdpSinkApp
config partial_mesh.es_6.app[22].display-name avb-59
config partial_mesh.es_6.app[22].io.localPort 5059
config *.*.eth[*].macLayer.queue.classifier.mapping "[[0, 0, 0, 0, 0, 0, 0, 0],\n                                                [0, 0, 0, 0, 0, 1, 1, 1],\n                                                [0, 0, 0, 1, 1, 2, 2, 2],\n                                                [0, 0, 0, 1, 1, 2, 3, 3],\n                                                [0, 1, 1, 2, 2, 3, 4, 4],\n                                                [0, 1, 1, 2, 2, 3, 4, 5],\n                                                [0, 1, 2, 3, 3, 4, 5, 6],\n                                                [0, 1, 2, 3, 4, 5, 6, 7]]"
config *.macForwardingTableConfigurator.typename ""
config *.*.hasStreamRedundancy true
config *.*.bridging.streamRelay.typename StreamRelayLayer
config *.*.bridging.streamCoder.typename StreamCoderLayer
config *.streamRedundancyConfigurator.typename r438StreamRedundancyConfigurator
config *.streamRedundancyConfigurator.configuration "[\n\t{pcp: 0, name: \"tsn-0\", packetFilter: \"*-tsn-0-*\", source: \"es_6\", destination: \"es_2\", trees: [[[\"es_6\", \"s_12\", \"s_11\", \"s_7\", \"s_3\", \"s_4\", \"es_2\"]], [[\"es_6\", \"s_12\", \"s_8\", \"s_4\", \"es_2\"]]]},\n\t{pcp: 0, name: \"tsn-1\", packetFilter: \"*-tsn-1-*\", source: \"es_5\", destination: \"es_6\", trees: [[[\"es_5\", \"s_9\", \"s_5\", \"s_6\", \"s_7\", \"s_8\", \"s_12\", \"es_6\"]], [[\"es_5\", \"s_9\", \"s_10\", \"s_11\", \"s_12\", \"es_6\"]]]},\n\t{pcp: 1, name: \"tsn-2\", packetFilter: \"*-tsn-2-*\", source: \"es_4\", destination: \"es_3\", trees: [[[\"es_4\", \"s_8\", \"s_7\", \"s_11\", \"s_10\", \"s_9\", \"s_5\", \"es_3\"]], [[\"es_4\", \"s_8\", \"s_4\", \"s_3\", \"s_2\", \"s_1\", \"s_5\", \"es_3\"]]]},\n\t{pcp: 0, name: \"tsn-3\", packetFilter: \"*-tsn-3-*\", source: \"es_4\", destination: \"es_3\", trees: [[[\"es_4\", \"s_8\", \"s_7\", \"s_6\", \"s_5\", \"es_3\"]], [[\"es_4\", \"s_8\", \"s_12\", \"s_11\", \"s_10\", \"s_9\", \"s_5\", \"es_3\"]]]},\n\t{pcp: 0, name: \"tsn-4\", packetFilter: \"*-tsn-4-*\", source: \"es_1\", destination: \"es_4\", trees: [[[\"es_1\", \"s_1\", \"s_2\", \"s_3\", \"s_4\", \"s_8\", \"es_4\"]], [[\"es_1\", \"s_1\", \"s_5\", \"s_6\", \"s_10\", \"s_11\", \"s_7\", \"s_8\", \"es_4\"]]]},\n\t{pcp: 0, name: \"tsn-5\", packetFilter: \"*-tsn-5-*\", source: \"es_3\", destination: \"es_6\", trees: [[[\"es_3\", \"s_5\", \"s_6\", \"s_7\", \"s_8\", \"s_12\", \"es_6\"]], [[\"es_3\", \"s_5\", \"s_9\", \"s_10\", \"s_11\", \"s_12\", \"es_6\"]]]},\n\t{pcp: 0, name: \"tsn-6\", packetFilter: \"*-tsn-6-*\", source: \"es_1\", destination: \"es_3\", trees: [[[\"es_1\", \"s_1\", \"s_2\", \"s_6\", \"s_5\", \"es_3\"]], [[\"es_1\", \"s_1\", \"s_5\", \"es_3\"]]]},\n\t{pcp: 0, name: \"tsn-7\", packetFilter: \"*-tsn-7-*\", source: \"es_3\", destination: \"es_2\", trees: [[[\"es_3\", \"s_5\", \"s_1\", \"s_2\", \"s_3\", \"s_4\", \"es_2\"]], [[\"es_3\", \"s_5\", \"s_6\", \"s_7\", \"s_8\", \"s_4\", \"es_2\"]]]},\n\t{pcp: 1, name: \"tsn-8\", packetFilter: \"*-tsn-8-*\", source: \"es_2\", destination: \"es_5\", trees: [[[\"es_2\", \"s_4\", \"s_3\", \"s_2\", \"s_6\", \"s_5\", \"s_9\", \"es_5\"]], [[\"es_2\", \"s_4\", \"s_8\", \"s_12\", \"s_11\", \"s_10\", \"s_9\", \"es_5\"]]]},\n\t{pcp: 1, name: \"tsn-9\", packetFilter: \"*-tsn-9-*\", source: \"es_3\", destination: \"es_6\", trees: [[[\"es_3\", \"s_5\", \"s_6\", \"s_7\", \"s_8\", \"s_12\", \"es_6\"]], [[\"es_3\", \"s_5\", \"s_9\", \"s_10\", \"s_11\", \"s_12\", \"es_6\"]]]},\n\t{pcp: 0, name: \"tsn-10\", packetFilter: \"*-tsn-10-*\", source: \"es_4\", destination: \"es_2\", trees: [[[\"es_4\", \"s_8\", \"s_7\", \"s_3\", \"s_4\", \"es_2\"]], [[\"es_4\", \"s_8\", \"s_4\", \"es_2\"]]]},\n\t{pcp: 0, name: \"tsn-11\", packetFilter: \"*-tsn-11-*\", source: \"es_2\", destination: \"es_1\", trees: [[[\"es_2\", \"s_4\", \"s_3\", \"s_2\", \"s_1\", \"es_1\"]], [[\"es_2\", \"s_4\", \"s_8\", \"s_7\", \"s_6\", \"s_5\", \"s_1\", \"es_1\"]]]},\n\t{pcp: 0, name: \"tsn-12\", packetFilter: \"*-tsn-12-*\", source: \"es_6\", destination: \"es_4\", trees: [[[\"es_6\", \"s_12\", \"s_11\", \"s_7\", \"s_8\", \"es_4\"]], [[\"es_6\", \"s_12\", \"s_8\", \"es_4\"]]]},\n\t{pcp: 0, name: \"tsn-13\", packetFilter: \"*-tsn-13-*\", source: \"es_2\", destination: \"es_1\", trees: [[[\"es_2\", \"s_4\", \"s_3\", \"s_2\", \"s_1\", \"es_1\"]], [[\"es_2\", \"s_4\", \"s_8\", \"s_12\", \"s_11\", \"s_10\", \"s_9\", \"s_5\", \"s_1\", \"es_1\"]]]},\n\t{pcp: 0, name: \"tsn-14\", packetFilter: \"*-tsn-14-*\", source: \"es_3\", destination: \"es_2\", trees: [[[\"es_3\", \"s_5\", \"s_1\", \"s_2\", \"s_3\", \"s_4\", \"es_2\"]], [[\"es_3\", \"s_5\", \"s_6\", \"s_7\", \"s_8\", \"s_4\", \"es_2\"]]]},\n\t{pcp: 0, name: \"tsn-15\", packetFilter: \"*-tsn-15-*\", source: \"es_3\", destination: \"es_5\", trees: [[[\"es_3\", \"s_5\", \"s_6\", \"s_10\", \"s_9\", \"es_5\"]], [[\"es_3\", \"s_5\", \"s_9\", \"es_5\"]]]},\n\t{pcp: 0, name: \"tsn-16\", packetFilter: \"*-tsn-16-*\", source: \"es_6\", destination: \"es_2\", trees: [[[\"es_6\", \"s_12\", \"s_11\", \"s_7\", \"s_3\", \"s_4\", \"es_2\"]], [[\"es_6\", \"s_12\", \"s_8\", \"s_4\", \"es_2\"]]]},\n\t{pcp: 0, name: \"tsn-17\", packetFilter: \"*-tsn-17-*\", source: \"es_1\", destination: \"es_3\", trees: [[[\"es_1\", \"s_1\", \"s_2\", \"s_6\", \"s_5\", \"es_3\"]], [[\"es_1\", \"s_1\", \"s_5\", \"es_3\"]]]},\n\t{pcp: 0, name: \"tsn-18\", packetFilter: \"*-tsn-18-*\", source: \"es_3\", destination: \"es_4\", trees: [[[\"es_3\", \"s_5\", \"s_6\", \"s_7\", \"s_8\", \"es_4\"]], [[\"es_3\", \"s_5\", \"s_9\", \"s_10\", \"s_11\", \"s_12\", \"s_8\", \"es_4\"]]]},\n\t{pcp: 0, name: \"tsn-19\", packetFilter: \"*-tsn-19-*\", source: \"es_1\", destination: \"es_5\", trees: [[[\"es_1\", \"s_1\", \"s_2\", \"s_6\", \"s_10\", \"s_9\", \"es_5\"]], [[\"es_1\", \"s_1\", \"s_5\", \"s_9\", \"es_5\"]]]},\n\t{pcp: 1, name: \"tsn-20\", packetFilter: \"*-tsn-20-*\", source: \"es_6\", destination: \"es_5\", trees: [[[\"es_6\", \"s_12\", \"s_11\", \"s_10\", \"s_9\", \"es_5\"]], [[\"es_6\", \"s_12\", \"s_8\", \"s_7\", \"s_6\", \"s_5\", \"s_9\", \"es_5\"]]]},\n\t{pcp: 0, name: \"tsn-21\", packetFilter: \"*-tsn-21-*\", source: \"es_1\", destination: \"es_6\", trees: [[[\"es_1\", \"s_1\", \"s_2\", \"s_3\", \"s_7\", \"s_8\", \"s_12\", \"es_6\"]], [[\"es_1\", \"s_1\", \"s_5\", \"s_9\", \"s_10\", \"s_11\", \"s_12\", \"es_6\"]]]},\n\t{pcp: 0, name: \"tsn-22\", packetFilter: \"*-tsn-22-*\", source: \"es_5\", destination: \"es_3\", trees: [[[\"es_5\", \"s_9\", \"s_5\", \"es_3\"]], [[\"es_5\", \"s_9\", \"s_10\", \"s_6\", \"s_5\", \"es_3\"]]]},\n\t{pcp: 0, name: \"tsn-23\", packetFilter: \"*-tsn-23-*\", source: \"es_2\", destination: \"es_4\", trees: [[[\"es_2\", \"s_4\", \"s_3\", \"s_7\", \"s_8\", \"es_4\"]], [[\"es_2\", \"s_4\", \"s_8\", \"es_4\"]]]},\n\t{pcp: 0, name: \"tsn-24\", packetFilter: \"*-tsn-24-*\", source: \"es_6\", destination: \"es_3\", trees: [[[\"es_6\", \"s_12\", \"s_11\", \"s_10\", \"s_9\", \"s_5\", \"es_3\"]], [[\"es_6\", \"s_12\", \"s_8\", \"s_7\", \"s_6\", \"s_5\", \"es_3\"]]]},\n\t{pcp: 0, name: \"tsn-25\", packetFilter: \"*-tsn-25-*\", source: \"es_4\", destination: \"es_3\", trees: [[[\"es_4\", \"s_8\", \"s_7\", \"s_6\", \"s_5\", \"es_3\"]], [[\"es_4\", \"s_8\", \"s_12\", \"s_11\", \"s_10\", \"s_9\", \"s_5\", \"es_3\"]]]},\n\t{pcp: 0, name: \"tsn-26\", packetFilter: \"*-tsn-26-*\", source: \"es_2\", destination: \"es_3\", trees: [[[\"es_2\", \"s_4\", \"s_3\", \"s_2\", \"s_1\", \"s_5\", \"es_3\"]], [[\"es_2\", \"s_4\", \"s_8\", \"s_7\", \"s_6\", \"s_5\", \"es_3\"]]]},\n\t{pcp: 0, name: \"tsn-27\", packetFilter: \"*-tsn-27-*\", source: \"es_4\", destination: \"es_6\", trees: [[[\"es_4\", \"s_8\", \"s_7\", \"s_11\", \"s_12\", \"es_6\"]], [[\"es_4\", \"s_8\", \"s_12\", \"es_6\"]]]},\n\t{pcp: 1, name: \"tsn-28\", packetFilter: \"*-tsn-28-*\", source: \"es_1\", destination: \"es_2\", trees: [[[\"es_1\", \"s_1\", \"s_2\", \"s_3\", \"s_4\", \"es_2\"]], [[\"es_1\", \"s_1\", \"s_5\", \"s_9\", \"s_10\", \"s_11\", \"s_7\", \"s_8\", \"s_4\", \"es_2\"]]]},\n\t{pcp: 0, name: \"tsn-29\", packetFilter: \"*-tsn-29-*\", source: \"es_1\", destination: \"es_3\", trees: [[[\"es_1\", \"s_1\", \"s_2\", \"s_6\", \"s_5\", \"es_3\"]], [[\"es_1\", \"s_1\", \"s_5\", \"es_3\"]]]},\n\t{pcp: 0, name: \"tsn-30\", packetFilter: \"*-tsn-30-*\", source: \"es_6\", destination: \"es_4\", trees: [[[\"es_6\", \"s_12\", \"s_11\", \"s_7\", \"s_8\", \"es_4\"]], [[\"es_6\", \"s_12\", \"s_8\", \"es_4\"]]]},\n\t{pcp: 0, name: \"tsn-31\", packetFilter: \"*-tsn-31-*\", source: \"es_4\", destination: \"es_2\", trees: [[[\"es_4\", \"s_8\", \"s_7\", \"s_3\", \"s_4\", \"es_2\"]], [[\"es_4\", \"s_8\", \"s_4\", \"es_2\"]]]},\n\t{pcp: 0, name: \"tsn-32\", packetFilter: \"*-tsn-32-*\", source: \"es_6\", destination: \"es_5\", trees: [[[\"es_6\", \"s_12\", \"s_11\", \"s_10\", \"s_9\", \"es_5\"]], [[\"es_6\", \"s_12\", \"s_8\", \"s_7\", \"s_6\", \"s_5\", \"s_9\", \"es_5\"]]]},\n\t{pcp: 1, name: \"tsn-33\", packetFilter: \"*-tsn-33-*\", source: \"es_5\", destination: \"es_4\", trees: [[[\"es_5\", \"s_9\", \"s_5\", \"s_6\", \"s_7\", \"s_8\", \"es_4\"]], [[\"es_5\", \"s_9\", \"s_10\", \"s_11\", \"s_12\", \"s_8\", \"es_4\"]]]},\n\t{pcp: 0, name: \"tsn-34\", packetFilter: \"*-tsn-34-*\", source: \"es_5\", destination: \"es_3\", trees: [[[\"es_5\", \"s_9\", \"s_5\", \"es_3\"]], [[\"es_5\", \"s_9\", \"s_10\", \"s_6\", \"s_5\", \"es_3\"]]]},\n\t{pcp: 0, name: \"tsn-35\", packetFilter: \"*-tsn-35-*\", source: \"es_3\", destination: \"es_2\", trees: [[[\"es_3\", \"s_5\", \"s_1\", \"s_2\", \"s_3\", \"s_4\", \"es_2\"]], [[\"es_3\", \"s_5\", \"s_6\", \"s_7\", \"s_8\", \"s_4\", \"es_2\"]]]},\n\t{pcp: 0, name: \"tsn-36\", packetFilter: \"*-tsn-36-*\", source: \"es_6\", destination: \"es_1\", trees: [[[\"es_6\", \"s_12\", \"s_11\", \"s_10\", \"s_9\", \"s_5\", \"s_1\", \"es_1\"]], [[\"es_6\", \"s_12\", \"s_8\", \"s_7\", \"s_3\", \"s_2\", \"s_1\", \"es_1\"]]]},\n\t{pcp: 0, name: \"tsn-37\", packetFilter: \"*-tsn-37-*\", source: \"es_6\", destination: \"es_4\", trees: [[[\"es_6\", \"s_12\", \"s_11\", \"s_7\", \"s_8\", \"es_4\"]], [[\"es_6\", \"s_12\", \"s_8\", \"es_4\"]]]},\n\t{pcp: 1, name: \"tsn-38\", packetFilter: \"*-tsn-38-*\", source: \"es_5\", destination: \"es_2\", trees: [[[\"es_5\", \"s_9\", \"s_5\", \"s_1\", \"s_2\", \"s_3\", \"s_4\", \"es_2\"]], [[\"es_5\", \"s_9\", \"s_10\", \"s_11\", \"s_7\", \"s_8\", \"s_4\", \"es_2\"]]]},\n\t{pcp: 0, name: \"tsn-39\", packetFilter: \"*-tsn-39-*\", source: \"es_1\", destination: \"es_5\", trees: [[[\"es_1\", \"s_1\", \"s_2\", \"s_6\", \"s_10\", \"s_9\", \"es_5\"]], [[\"es_1\", \"s_1\", \"s_5\", \"s_9\", \"es_5\"]]]},\n\t{pcp: 7, name: \"avb-40\", packetFilter: \"*-avb-40-*\", source: \"es_5\", destination: \"es_6\", trees: [[[\"es_5\", \"s_9\", \"s_5\", \"s_6\", \"s_7\", \"s_8\", \"s_12\", \"es_6\"]], [[\"es_5\", \"s_9\", \"s_10\", \"s_11\", \"s_12\", \"es_6\"]]]},\n\t{pcp: 7, name: \"avb-41\", packetFilter: \"*-avb-41-*\", source: \"es_6\", destination: \"es_3\", trees: [[[\"es_6\", \"s_12\", \"s_11\", \"s_10\", \"s_9\", \"s_5\", \"es_3\"]], [[\"es_6\", \"s_12\", \"s_8\", \"s_7\", \"s_6\", \"s_5\", \"es_3\"]]]},\n\t{pcp: 7, name: \"avb-42\", packetFilter: \"*-avb-42-*\", source: \"es_2\", destination: \"es_6\", trees: [[[\"es_2\", \"s_4\", \"s_3\", \"s_7\", \"s_11\", \"s_12\", \"es_6\"]], [[\"es_2\", \"s_4\", \"s_8\", \"s_12\", \"es_6\"]]]},\n\t{pcp: 7, name: \"avb-43\", packetFilter: \"*-avb-43-*\", source: \"es_3\", destination: \"es_1\", trees: [[[\"es_3\", \"s_5\", \"s_1\", \"es_1\"]], [[\"es_3\", \"s_5\", \"s_6\", \"s_2\", \"s_1\", \"es_1\"]]]},\n\t{pcp: 7, name: \"avb-44\", packetFilter: \"*-avb-44-*\", source: \"es_5\", destination: \"es_4\", trees: [[[\"es_5\", \"s_9\", \"s_5\", \"s_6\", \"s_7\", \"s_8\", \"es_4\"]], [[\"es_5\", \"s_9\", \"s_10\", \"s_11\", \"s_12\", \"s_8\", \"es_4\"]]]},\n\t{pcp: 7, name: \"avb-45\", packetFilter: \"*-avb-45-*\", source: \"es_4\", destination: \"es_5\", trees: [[[\"es_4\", \"s_8\", \"s_7\", \"s_6\", \"s_5\", \"s_9\", \"es_5\"]], [[\"es_4\", \"s_8\", \"s_12\", \"s_11\", \"s_10\", \"s_9\", \"es_5\"]]]},\n\t{pcp: 7, name: \"avb-46\", packetFilter: \"*-avb-46-*\", source: \"es_6\", destination: \"es_1\", trees: [[[\"es_6\", \"s_12\", \"s_11\", \"s_7\", \"s_6\", \"s_5\", \"s_1\", \"es_1\"]], [[\"es_6\", \"s_12\", \"s_8\", \"s_4\", \"s_3\", \"s_2\", \"s_1\", \"es_1\"]]]},\n\t{pcp: 7, name: \"avb-47\", packetFilter: \"*-avb-47-*\", source: \"es_4\", destination: \"es_2\", trees: [[[\"es_4\", \"s_8\", \"s_7\", \"s_3\", \"s_4\", \"es_2\"]], [[\"es_4\", \"s_8\", \"s_4\", \"es_2\"]]]},\n\t{pcp: 7, name: \"avb-48\", packetFilter: \"*-avb-48-*\", source: \"es_1\", destination: \"es_6\", trees: [[[\"es_1\", \"s_1\", \"s_2\", \"s_3\", \"s_4\", \"s_8\", \"s_12\", \"es_6\"]], [[\"es_1\", \"s_1\", \"s_5\", \"s_9\", \"s_10\", \"s_11\", \"s_12\", \"es_6\"]]]},\n\t{pcp: 7, name: \"avb-49\", packetFilter: \"*-avb-49-*\", source: \"es_3\", destination: \"es_2\", trees: [[[\"es_3\", \"s_5\", \"s_1\", \"s_2\", \"s_3\", \"s_4\", \"es_2\"]], [[\"es_3\", \"s_5\", \"s_6\", \"s_7\", \"s_8\", \"s_4\", \"es_2\"]]]},\n\t{pcp: 7, name: \"avb-50\", packetFilter: \"*-avb-50-*\", source: \"es_2\", destination: \"es_1\", trees: [[[\"es_2\", \"s_4\", \"s_3\", \"s_2\", \"s_1\", \"es_1\"]], [[\"es_2\", \"s_4\", \"s_8\", \"s_7\", \"s_6\", \"s_5\", \"s_1\", \"es_1\"]]]},\n\t{pcp: 7, name: \"avb-51\", packetFilter: \"*-avb-51-*\", source: \"es_4\", destination: \"es_2\", trees: [[[\"es_4\", \"s_8\", \"s_7\", \"s_3\", \"s_4\", \"es_2\"]], [[\"es_4\", \"s_8\", \"s_4\", \"es_2\"]]]},\n\t{pcp: 7, name: \"avb-52\", packetFilter: \"*-avb-52-*\", source: \"es_3\", destination: \"es_2\", trees: [[[\"es_3\", \"s_5\", \"s_1\", \"s_2\", \"s_3\", \"s_4\", \"es_2\"]], [[\"es_3\", \"s_5\", \"s_6\", \"s_7\", \"s_8\", \"s_4\", \"es_2\"]]]},\n\t{pcp: 7, name: \"avb-53\", packetFilter: \"*-avb-53-*\", source: \"es_1\", destination: \"es_4\", trees: [[[\"es_1\", \"s_1\", \"s_2\", \"s_3\", \"s_4\", \"s_8\", \"es_4\"]], [[\"es_1\", \"s_1\", \"s_5\", \"s_6\", \"s_7\", \"s_8\", \"es_4\"]]]},\n\t{pcp: 7, name: \"avb-54\", packetFilter: \"*-avb-54-*\", source: \"es_4\", destination: \"es_6\", trees: [[[\"es_4\", \"s_8\", \"s_7\", \"s_11\", \"s_12\", \"es_6\"]], [[\"es_4\", \"s_8\", \"s_12\", \"es_6\"]]]},\n\t{pcp: 7, name: \"avb-55\", packetFilter: \"*-avb-55-*\", source: \"es_5\", destination: \"es_1\", trees: [[[\"es_5\", \"s_9\", \"s_5\", \"s_1\", \"es_1\"]], [[\"es_5\", \"s_9\", \"s_10\", \"s_6\", \"s_2\", \"s_1\", \"es_1\"]]]},\n\t{pcp: 7, name: \"avb-56\", packetFilter: \"*-avb-56-*\", source: \"es_6\", destination: \"es_5\", trees: [[[\"es_6\", \"s_12\", \"s_11\", \"s_10\", \"s_9\", \"es_5\"]], [[\"es_6\", \"s_12\", \"s_8\", \"s_7\", \"s_6\", \"s_5\", \"s_9\", \"es_5\"]]]},\n\t{pcp: 7, name: \"avb-57\", packetFilter: \"*-avb-57-*\", source: \"es_6\", destination: \"es_1\", trees: [[[\"es_6\", \"s_12\", \"s_11\", \"s_10\", \"s_6\", \"s_5\", \"s_1\", \"es_1\"]], [[\"es_6\", \"s_12\", \"s_8\", \"s_4\", \"s_3\", \"s_2\", \"s_1\", \"es_1\"]]]},\n\t{pcp: 7, name: \"avb-58\", packetFilter: \"*-avb-58-*\", source: \"es_4\", destination: \"es_5\", trees: [[[\"es_4\", \"s_8\", \"s_4\", \"s_3\", \"s_2\", \"s_1\", \"s_5\", \"s_9\", \"es_5\"]], [[\"es_4\", \"s_8\", \"s_12\", \"s_11\", \"s_10\", \"s_9\", \"es_5\"]]]},\n\t{pcp: 7, name: \"avb-59\", packetFilter: \"*-avb-59-*\", source: \"es_4\", destination: \"es_6\", trees: [[[\"es_4\", \"s_8\", \"s_7\", \"s_11\", \"s_12\", \"es_6\"]], [[\"es_4\", \"s_8\", \"s_12\", \"es_6\"]]]}]"
config *.gateScheduleConfigurator.typename r438Configurator
config *.gateScheduleConfigurator.gateCycleDuration 2000us

vector 0 partial_mesh.es_1.eth[0].phyLayer.transmitter transmitting:vector ETV
attr interpolationmode sample-hold
attr recordingmode vector
attr source "count(transmissionStarted) - count(transmissionEnded)"
attr title "transmitting state"
attr type int
vector 1 partial_mesh.es_1.udp passedUpPk:vector(count) ETV
attr interpolationmode none
attr recordingmode vector(count)
attr source packetSentToUpper
attr title "packets passed up, count"
vector 2 partial_mesh.es_1.udp droppedPkWrongPort:vector(count) ETV
attr interpolationmode none
attr recordingmode vector(count)
attr source packetDropReasonIsNoPortFound(packetDropped)
attr title "packets dropped (wrong port), count"
vector 3 partial_mesh.es_1.udp droppedPkBadChecksum:vector(count) ETV
attr interpolationmode none
attr recordingmode vector(count)
attr source packetDropReasonIsIncorrectlyReceived(packetDropped)
attr title "packets dropped (checksum error), count"
vector 4 partial_mesh.es_2.eth[0].phyLayer.transmitter transmitting:vector ETV
attr interpolationmode sample-hold
attr recordingmode vector
attr source "count(transmissionStarted) - count(transmissionEnded)"
attr title "transmitting state"
attr type int
vector 5 partial_mesh.es_2.udp passedUpPk:vector(count) ETV
attr interpolationmode none
attr recordingmode vector(count)
attr source packetSentToUpper
attr title "packets passed up, count"
vector 6 partial_mesh.es_2.udp droppedPkWrongPort:vector(count) ETV
attr interpolationmode none
attr recordingmode vector(count)
attr source packetDropReasonIsNoPortFound(packetDropped)
attr title "packets dropped (wrong port), count"
vector 7 partial_mesh.es_2.udp droppedPkBadChecksum:vector(count) ETV
attr interpolationmode none
attr recordingmode vector(count)
attr source packetDropReasonIsIncorrectlyReceived(packetDropped)
attr title "packets dropped (checksum error), count"
vector 8 partial_mesh.es_3.eth[0].phyLayer.transmitter transmitting:vector ETV
attr interpolationmode sample-hold
attr recordingmode vector
attr source "count(transmissionStarted) - count(transmissionEnded)"
attr title "transmitting state"
attr type int
vector 9 partial_mesh.es_3.udp passedUpPk:vector(count) ETV
attr interpolationmode none
attr recordingmode vector(count)
attr source packetSentToUpper
attr title "packets passed up, count"
vector 10 partial_mesh.es_3.udp droppedPkWrongPort:vector(count) ETV
attr interpolationmode none
attr recordingmode vector(count)
attr source packetDropReasonIsNoPortFound(packetDropped)
attr title "packets dropped (wrong port), count"
vector 11 partial_mesh.es_3.udp droppedPkBadChecksum:vector(count) ETV
attr interpolationmode none
attr recordingmode vector(count)
attr source packetDropReasonIsIncorrectlyReceived(packetDropped)
attr title "packets dropped (checksum error), count"
vector 12 partial_mesh.es_4.eth[0].phyLayer.transmitter transmitting:vector ETV
attr interpolationmode sample-hold
attr recordingmode vector
attr source "count(transmissionStarted) - count(transmissionEnded)"
attr title "transmitting state"
attr type int
vector 13 partial_mesh.es_4.udp passedUpPk:vector(count) ETV
attr interpolationmode none
attr recordingmode vector(count)
attr source packetSentToUpper
attr title "packets passed up, count"
vector 14 partial_mesh.es_4.udp droppedPkWrongPort:vector(count) ETV
attr interpolationmode none
attr recordingmode vector(count)
attr source packetDropReasonIsNoPortFound(packetDropped)
attr title "packets dropped (wrong port), count"
vector 15 partial_mesh.es_4.udp droppedPkBadChecksum:vector(count) ETV
attr interpolationmode none
attr recordingmode vector(count)
attr source packetDropReasonIsIncorrectlyReceived(packetDropped)
attr title "packets dropped (checksum error), count"
vector 16 partial_mesh.es_5.eth[0].phyLayer.transmitter transmitting:vector ETV
attr interpolationmode sample-hold
attr recordingmode vector
attr source "count(transmissionStarted) - count(transmissionEnded)"
attr title "transmitting state"
attr type int
vector 17 partial_mesh.es_5.udp passedUpPk:vector(count) ETV
attr interpolationmode none
attr recordingmode vector(count)
attr source packetSentToUpper
attr title "packets passed up, count"
vector 18 partial_mesh.es_5.udp droppedPkWrongPort:vector(count) ETV
attr interpolationmode none
attr recordingmode vector(count)
attr source packetDropReasonIsNoPortFound(packetDropped)
attr title "packets dropped (wrong port), count"
vector 19 partial_mesh.es_5.udp droppedPkBadChecksum:vector(count) ETV
attr interpolationmode none
attr recordingmode vector(count)
attr source packetDropReasonIsIncorrectlyReceived(packetDropped)
attr title "packets dropped (checksum error), count"
vector 20 partial_mesh.es_6.eth[0].phyLayer.transmitter transmitting:vector ETV
attr interpolationmode sample-hold
attr recordingmode vector
attr source "count(transmissionStarted) - count(transmissionEnded)"
attr title "transmitting state"
attr type int
vector 21 partial_mesh.es_6.udp passedUpPk:vector(count) ETV
attr interpolationmode none
attr recordingmode vector(count)
attr source packetSentToUpper
attr title "packets passed up, count"
vector 22 partial_mesh.es_6.udp droppedPkWrongPort:vector(count) ETV
attr interpolationmode none
attr recordingmode vector(count)
attr source packetDropReasonIsNoPortFound(packetDropped)
attr title "packets dropped (wrong port), count"
vector 23 partial_mesh.es_6.udp droppedPkBadChecksum:vector(count) ETV
attr interpolationmode none
attr recordingmode vector(count)
attr source packetDropReasonIsIncorrectlyReceived(packetDropped)
attr title "packets dropped (checksum error), count"
vector 24 partial_mesh.s_1.eth[0].phyLayer.transmitter transmitting:vector ETV
attr interpolationmode sample-hold
attr recordingmode vector
attr source "count(transmissionStarted) - count(transmissionEnded)"
attr title "transmitting state"
attr type int
vector 25 partial_mesh.s_1.eth[1].phyLayer.transmitter transmitting:vector ETV
attr interpolationmode sample-hold
attr recordingmode vector
attr source "count(transmissionStarted) - count(transmissionEnded)"
attr title "transmitting state"
attr type int
vector 26 partial_mesh.s_1.eth[2].phyLayer.transmitter transmitting:vector ETV
attr interpolationmode sample-hold
attr recordingmode vector
attr source "count(transmissionStarted) - count(transmissionEnded)"
attr title "transmitting state"
attr type int
vector 27 partial_mesh.s_2.eth[0].phyLayer.transmitter transmitting:vector ETV
attr interpolationmode sample-hold
attr recordingmode vector
attr source "count(transmissionStarted) - count(transmissionEnded)"
attr title "transmitting state"
attr type int
vector 28 partial_mesh.s_2.eth[1].phyLayer.transmitter transmitting:vector ETV
attr interpolationmode sample-hold
attr recordingmode vector
attr source "count(transmissionStarted) - count(transmissionEnded)"
attr title "transmitting state"
attr type int
vector 29 partial_mesh.s_2.eth[2].phyLayer.transmitter transmitting:vector ETV
attr interpolationmode sample-hold
attr recordingmode vector
attr source "count(transmissionStarted) - count(transmissionEnded)"
attr title "transmitting state"
attr type int
vector 30 partial_mesh.s_3.eth[0].phyLayer.transmitter transmitting:vector ETV
attr interpolationmode sample-hold
attr recordingmode vector
attr source "count(transmissionStarted) - count(transmissionEnded)"
attr title "transmitting state"
attr type int
vector 31 partial_mesh.s_3.eth[1].phyLayer.transmitter transmitting:vector ETV
attr interpolationmode sample-hold
attr recordingmode vector
attr source "count(transmissionStarted) - count(transmissionEnded)"
attr title "transmitting state"
attr type int
vector 32 partial_mesh.s_3.eth[2].phyLayer.transmitter transmitting:vector ETV
attr interpolationmode sample-hold
attr recordingmode vector
attr source "count(transmissionStarted) - count(transmissionEnded)"
attr title "transmitting state"
attr type int
vector 33 partial_mesh.s_4.eth[0].phyLayer.transmitter transmitting:vector ETV
attr interpolationmode sample-hold
attr recordingmode vector
attr source "count(transmissionStarted) - count(transmissionEnded)"
attr title "transmitting state"
attr type int
vector 34 partial_mesh.s_4.eth[1].phyLayer.transmitter transmitting:vector ETV
attr interpolationmode sample-hold
attr recordingmode vector
attr source "count(transmissionStarted) - count(transmissionEnded)"
attr title "transmitting state"
attr type int
vector 35 partial_mesh.s_4.eth[2].phyLayer.transmitter transmitting:vector ETV
attr interpolationmode sample-hold
attr recordingmode vector
attr source "count(transmissionStarted) - count(transmissionEnded)"
attr title "transmitting state"
attr type int
vector 36 partial_mesh.s_5.eth[0].phyLayer.transmitter transmitting:vector ETV
attr interpolationmode sample-hold
attr recordingmode vector
attr source "count(transmissionStarted) - count(transmissionEnded)"
attr title "transmitting state"
attr type int
vector 37 partial_mesh.s_5.eth[1].phyLayer.transmitter transmitting:vector ETV
attr interpolationmode sample-hold
attr recordingmode vector
attr source "count(transmissionStarted) - count(transmissionEnded)"
attr title "transmitting state"
attr type int
vector 38 partial_mesh.s_5.eth[2].phyLayer.transmitter transmitting:vector ETV
attr interpolationmode sample-hold
attr recordingmode vector
attr source "count(transmissionStarted) - count(transmissionEnded)"
attr title "transmitting state"
attr type int
vector 39 partial_mesh.s_5.eth[3].phyLayer.transmitter transmitting:vector ETV
attr interpolationmode sample-hold
attr recordingmode vector
attr source "count(transmissionStarted) - count(transmissionEnded)"
attr title "transmitting state"
attr type int
vector 40 partial_mesh.s_6.eth[0].phyLayer.transmitter transmitting:vector ETV
attr interpolationmode sample-hold
attr recordingmode vector
attr source "count(transmissionStarted) - count(transmissionEnded)"
attr title "transmitting state"
attr type int
vector 41 partial_mesh.s_6.eth[1].phyLayer.transmitter transmitting:vector ETV
attr interpolationmode sample-hold
attr recordingmode vector
attr source "count(transmissionStarted) - count(transmissionEnded)"
attr title "transmitting state"
attr type int
vector 42 partial_mesh.s_6.eth[2].phyLayer.transmitter transmitting:vector ETV
attr interpolationmode sample-hold
attr recordingmode vector
attr source "count(transmissionStarted) - count(transmissionEnded)"
attr title "transmitting state"
attr type int
vector 43 partial_mesh.s_6.eth[3].phyLayer.transmitter transmitting:vector ETV
attr interpolationmode sample-hold
attr recordingmode vector
attr source "count(transmissionStarted) - count(transmissionEnded)"
attr title "transmitting state"
attr type int
vector 44 partial_mesh.s_7.eth[0].phyLayer.transmitter transmitting:vector ETV
attr interpolationmode sample-hold
attr recordingmode vector
attr source "count(transmissionStarted) - count(transmissionEnded)"
attr title "transmitting state"
attr type int
vector 45 partial_mesh.s_7.eth[1].phyLayer.transmitter transmitting:vector ETV
attr interpolationmode sample-hold
attr recordingmode vector
attr source "count(transmissionStarted) - count(transmissionEnded)"
attr title "transmitting state"
attr type int
vector 46 partial_mesh.s_7.eth[2].phyLayer.transmitter transmitting:vector ETV
attr interpolationmode sample-hold
attr recordingmode vector
attr source "count(transmissionStarted) - count(transmissionEnded)"
attr title "transmitting state"
attr type int
vector 47 partial_mesh.s_7.eth[3].phyLayer.transmitter transmitting:vector ETV
attr interpolationmode sample-hold
attr recordingmode vector
attr source "count(transmissionStarted) - count(transmissionEnded)"
attr title "transmitting state"
attr type int
vector 48 partial_mesh.s_8.eth[0].phyLayer.transmitter transmitting:vector ETV
attr interpolationmode sample-hold
attr recordingmode vector
attr source "count(transmissionStarted) - count(transmissionEnded)"
attr title "transmitting state"
attr type int
vector 49 partial_mesh.s_8.eth[1].phyLayer.transmitter transmitting:vector ETV
attr interpolationmode sample-hold
attr recordingmode vector
attr source "count(transmissionStarted) - count(transmissionEnded)"
attr title "transmitting state"
attr type int
vector 50 partial_mesh.s_8.eth[2].phyLayer.transmitter transmitting:vector ETV
attr interpolationmode sample-hold
attr recordingmode vector
attr source "count(transmissionStarted) - count(transmissionEnded)"
attr title "transmitting state"
attr type int
vector 51 partial_mesh.s_8.eth[3].phyLayer.transmitter transmitting:vector ETV
attr interpolationmode sample-hold
attr recordingmode vector
attr source "count(transmissionStarted) - count(transmissionEnded)"
attr title "transmitting state"
attr type int
vector 52 partial_mesh.s_9.eth[0].phyLayer.transmitter transmitting:vector ETV
attr interpolationmode sample-hold
attr recordingmode vector
attr source "count(transmissionStarted) - count(transmissionEnded)"
attr title "transmitting state"
attr type int
vector 53 partial_mesh.s_9.eth[1].phyLayer.transmitter transmitting:vector ETV
attr interpolationmode sample-hold
attr recordingmode vector
attr source "count(transmissionStarted) - count(transmissionEnded)"
attr title "transmitting state"
attr type int
vector 54 partial_mesh.s_9.eth[2].phyLayer.transmitter transmitting:vector ETV
attr interpolationmode sample-hold
attr recordingmode vector
attr source "count(transmissionStarted) - count(transmissionEnded)"
attr title "transmitting state"
attr type int
vector 55 partial_mesh.s_10.eth[0].phyLayer.transmitter transmitting:vector ETV
attr interpolationmode sample-hold
attr recordingmode vector
attr source "count(transmissionStarted) - count(transmissionEnded)"
attr title "transmitting state"
attr type int
vector 56 partial_mesh.s_10.eth[1].phyLayer.transmitter transmitting:vector ETV
attr interpolationmode sample-hold
attr recordingmode vector
attr source "count(transmissionStarted) - count(transmissionEnded)"
attr title "transmitting state"
attr type int
vector 57 partial_mesh.s_10.eth[2].phyLayer.transmitter transmitting:vector ETV
attr interpolationmode sample-hold
attr recordingmode vector
attr source "count(transmissionStarted) - count(transmissionEnded)"
attr title "transmitting state"
attr type int
vector 58 partial_mesh.s_11.eth[0].phyLayer.transmitter transmitting:vector ETV
attr interpolationmode sample-hold
attr recordingmode vector
attr source "count(transmissionStarted) - count(transmissionEnded)"
attr title "transmitting state"
attr type int
vector 59 partial_mesh.s_11.eth[1].phyLayer.transmitter transmitting:vector ETV
attr interpolationmode sample-hold
attr recordingmode vector
attr source "count(transmissionStarted) - count(transmissionEnded)"
attr title "transmitting state"
attr type int
vector 60 partial_mesh.s_11.eth[2].phyLayer.transmitter transmitting:vector ETV
attr interpolationmode sample-hold
attr recordingmode vector
attr source "count(transmissionStarted) - count(transmissionEnded)"
attr title "transmitting state"
attr type int
vector 61 partial_mesh.s_12.eth[0].phyLayer.transmitter transmitting:vector ETV
attr interpolationmode sample-hold
attr recordingmode vector
attr source "count(transmissionStarted) - count(transmissionEnded)"
attr title "transmitting state"
attr type int
vector 62 partial_mesh.s_12.eth[1].phyLayer.transmitter transmitting:vector ETV
attr interpolationmode sample-hold
attr recordingmode vector
attr source "count(transmissionStarted) - count(transmissionEnded)"
attr title "transmitting state"
attr type int
vector 63 partial_mesh.s_12.eth[2].phyLayer.transmitter transmitting:vector ETV
attr interpolationmode sample-hold
attr recordingmode vector
attr source "count(transmissionStarted) - count(transmissionEnded)"
attr title "transmitting state"
attr type int
vector 64 partial_mesh.es_1.app[0].source packetLengths:vector ETV
attr interpolationmode none
attr moduledisplaypath partial_mesh.es_1.tsn-4.source
attr recordingmode vector
attr source packetLength(packetPushed)
attr title "packet lengths"
attr unit b
vector 65 partial_mesh.es_1.app[1].source packetLengths:vector ETV
attr interpolationmode none
attr moduledisplaypath partial_mesh.es_1.tsn-6.source
attr recordingmode vector
attr source packetLength(packetPushed)
attr title "packet lengths"
attr unit b
vector 66 partial_mesh.es_1.app[4].source packetLengths:vector ETV
attr interpolationmode none
attr moduledisplaypath partial_mesh.es_1.tsn-17.source
attr recordingmode vector
attr source packetLength(packetPushed)
attr title "packet lengths"
attr unit b
vector 67 partial_mesh.es_1.app[5].source packetLengths:vector ETV
attr interpolationmode none
attr moduledisplaypath partial_mesh.es_1.tsn-19.source
attr recordingmode vector
attr source packetLength(packetPushed)
attr title "packet lengths"
attr unit b
vector 68 partial_mesh.es_1.app[6].source packetLengths:vector ETV
attr interpolationmode none
attr moduledisplaypath partial_mesh.es_1.tsn-21.source
attr recordingmode vector
attr source packetLength(packetPushed)
attr title "packet lengths"
attr unit b
vector 69 partial_mesh.es_1.app[7].source packetLengths:vector ETV
attr interpolationmode none
attr moduledisplaypath partial_mesh.es_1.tsn-28.source
attr recordingmode vector
attr source packetLength(packetPushed)
attr title "packet lengths"
attr unit b
vector 70 partial_mesh.es_1.app[8].source packetLengths:vector ETV
attr interpolationmode none
attr moduledisplaypath partial_mesh.es_1.tsn-29.source
attr recordingmode vector
attr source packetLength(packetPushed)
attr title "packet lengths"
attr unit b
vector 71 partial_mesh.es_1.app[10].source packetLengths:vector ETV
attr interpolationmode none
attr moduledisplaypath partial_mesh.es_1.tsn-39.source
attr recordingmode vector
attr source packetLength(packetPushed)
attr title "packet lengths"
attr unit b
vector 72 partial_mesh.es_1.app[13].source packetLengths:vector ETV
attr interpolationmode none
attr moduledisplaypath partial_mesh.es_1.avb-48.source
attr recordingmode vector
attr source packetLength(packetPushed)
attr title "packet lengths"
attr unit b
vector 73 partial_mesh.es_1.app[15].source packetLengths:vector ETV
attr interpolationmode none
attr moduledisplaypath partial_mesh.es_1.avb-53.source
attr recordingmode vector
attr source packetLength(packetPushed)
attr title "packet lengths"
attr unit b
vector 74 partial_mesh.es_2.app[2].source packetLengths:vector ETV
attr interpolationmode none
attr moduledisplaypath partial_mesh.es_2.tsn-8.source
attr recordingmode vector
attr source packetLength(packetPushed)
attr title "packet lengths"
attr unit b
vector 75 partial_mesh.es_2.app[4].source packetLengths:vector ETV
attr interpolationmode none
attr moduledisplaypath partial_mesh.es_2.tsn-11.source
attr recordingmode vector
attr source packetLength(packetPushed)
attr title "packet lengths"
attr unit b
vector 76 partial_mesh.es_2.app[5].source packetLengths:vector ETV
attr interpolationmode none
attr moduledisplaypath partial_mesh.es_2.tsn-13.source
attr recordingmode vector
attr source packetLength(packetPushed)
attr title "packet lengths"
attr unit b
vector 77 partial_mesh.es_2.app[8].source packetLengths:vector ETV
attr interpolationmode none
attr moduledisplaypath partial_mesh.es_2.tsn-23.source
attr recordingmode vector
attr source packetLength(packetPushed)
attr title "packet lengths"
attr unit b
vector 78 partial_mesh.es_2.app[9].source packetLengths:vector ETV
attr interpolationmode none
attr moduledisplaypath partial_mesh.es_2.tsn-26.source
attr recordingmode vector
attr source packetLength(packetPushed)
attr title "packet lengths"
attr unit b
vector 79 partial_mesh.es_2.app[14].source packetLengths:vector ETV
attr interpolationmode none
attr moduledisplaypath partial_mesh.es_2.avb-42.source
attr recordingmode vector
attr source packetLength(packetPushed)
attr title "packet lengths"
attr unit b
vector 80 partial_mesh.es_2.app[17].source packetLengths:vector ETV
attr interpolationmode none
attr moduledisplaypath partial_mesh.es_2.avb-50.source
attr recordingmode vector
attr source packetLength(packetPushed)
attr title "packet lengths"
attr unit b
vector 81 partial_mesh.es_3.app[2].source packetLengths:vector ETV
attr interpolationmode none
attr moduledisplaypath partial_mesh.es_3.tsn-5.source
attr recordingmode vector
attr source packetLength(packetPushed)
attr title "packet lengths"
attr unit b
vector 82 partial_mesh.es_3.app[4].source packetLengths:vector ETV
attr interpolationmode none
attr moduledisplaypath partial_mesh.es_3.tsn-7.source
attr recordingmode vector
attr source packetLength(packetPushed)
attr title "packet lengths"
attr unit b
vector 83 partial_mesh.es_3.app[5].source packetLengths:vector ETV
attr interpolationmode none
attr moduledisplaypath partial_mesh.es_3.tsn-9.source
attr recordingmode vector
attr source packetLength(packetPushed)
attr title "packet lengths"
attr unit b
vector 84 partial_mesh.es_3.app[6].source packetLengths:vector ETV
attr interpolationmode none
attr moduledisplaypath partial_mesh.es_3.tsn-14.source
attr recordingmode vector
attr source packetLength(packetPushed)
attr title "packet lengths"
attr unit b
vector 85 partial_mesh.es_3.app[7].source packetLengths:vector ETV
attr interpolationmode none
attr moduledisplaypath partial_mesh.es_3.tsn-15.source
attr recordingmode vector
attr source packetLength(packetPushed)
attr title "packet lengths"
attr unit b
vector 86 partial_mesh.es_3.app[9].source packetLengths:vector ETV
attr interpolationmode none
attr moduledisplaypath partial_mesh.es_3.tsn-18.source
attr recordingmode vector
attr source packetLength(packetPushed)
attr title "packet lengths"
attr unit b
vector 87 partial_mesh.es_3.app[16].source packetLengths:vector ETV
attr interpolationmode none
attr moduledisplaypath partial_mesh.es_3.tsn-35.source
attr recordingmode vector
attr source packetLength(packetPushed)
attr title "packet lengths"
attr unit b
vector 88 partial_mesh.es_3.app[18].source packetLengths:vector ETV
attr interpolationmode none
attr moduledisplaypath partial_mesh.es_3.avb-43.source
attr recordingmode vector
attr source packetLength(packetPushed)
attr title "packet lengths"
attr unit b
vector 89 partial_mesh.es_3.app[19].source packetLengths:vector ETV
attr interpolationmode none
attr moduledisplaypath partial_mesh.es_3.avb-49.source
attr recordingmode vector
attr source packetLength(packetPushed)
attr title "packet lengths"
attr unit b
vector 90 partial_mesh.es_3.app[20].source packetLengths:vector ETV
attr interpolationmode none
attr moduledisplaypath partial_mesh.es_3.avb-52.source
attr recordingmode vector
attr source packetLength(packetPushed)
attr title "packet lengths"
attr unit b
vector 91 partial_mesh.es_4.app[0].source packetLengths:vector ETV
attr interpolationmode none
attr moduledisplaypath partial_mesh.es_4.tsn-2.source
attr recordingmode vector
attr source packetLength(packetPushed)
attr title "packet lengths"
attr unit b
vector 92 partial_mesh.es_4.app[1].source packetLengths:vector ETV
attr interpolationmode none
attr moduledisplaypath partial_mesh.es_4.tsn-3.source
attr recordingmode vector
attr source packetLength(packetPushed)
attr title "packet lengths"
attr unit b
vector 93 partial_mesh.es_4.app[3].source packetLengths:vector ETV
attr interpolationmode none
attr moduledisplaypath partial_mesh.es_4.tsn-10.source
attr recordingmode vector
attr source packetLength(packetPushed)
attr title "packet lengths"
attr unit b
vector 94 partial_mesh.es_4.app[7].source packetLengths:vector ETV
attr interpolationmode none
attr moduledisplaypath partial_mesh.es_4.tsn-25.source
attr recordingmode vector
attr source packetLength(packetPushed)
attr title "packet lengths"
attr unit b
vector 95 partial_mesh.es_4.app[8].source packetLengths:vector ETV
attr interpolationmode none
attr moduledisplaypath partial_mesh.es_4.tsn-27.source
attr recordingmode vector
attr source packetLength(packetPushed)
attr title "packet lengths"
attr unit b
vector 96 partial_mesh.es_4.app[10].source packetLengths:vector ETV
attr interpolationmode none
attr moduledisplaypath partial_mesh.es_4.tsn-31.source
attr recordingmode vector
attr source packetLength(packetPushed)
attr title "packet lengths"
attr unit b
vector 97 partial_mesh.es_4.app[14].source packetLengths:vector ETV
attr interpolationmode none
attr moduledisplaypath partial_mesh.es_4.avb-45.source
attr recordingmode vector
attr source packetLength(packetPushed)
attr title "packet lengths"
attr unit b
vector 98 partial_mesh.es_4.app[15].source packetLengths:vector ETV
attr interpolationmode none
attr moduledisplaypath partial_mesh.es_4.avb-47.source
attr recordingmode vector
attr source packetLength(packetPushed)
attr title "packet lengths"
attr unit b
vector 99 partial_mesh.es_4.app[16].source packetLengths:vector ETV
attr interpolationmode none
attr moduledisplaypath partial_mesh.es_4.avb-51.source
attr recordingmode vector
attr source packetLength(packetPushed)
attr title "packet lengths"
attr unit b
vector 100 partial_mesh.es_4.app[18].source packetLengths:vector ETV
attr interpolationmode none
attr moduledisplaypath partial_mesh.es_4.avb-54.source
attr recordingmode vector
attr source packetLength(packetPushed)
attr title "packet lengths"
attr unit b
vector 101 partial_mesh.es_4.app[19].source packetLengths:vector ETV
attr interpolationmode none
attr moduledisplaypath partial_mesh.es_4.avb-58.source
attr recordingmode vector
attr source packetLength(packetPushed)
attr title "packet lengths"
attr unit b
vector 102 partial_mesh.es_4.app[20].source packetLengths:vector ETV
attr interpolationmode none
attr moduledisplaypath partial_mesh.es_4.avb-59.source
attr recordingmode vector
attr source packetLength(packetPushed)
attr title "packet lengths"
attr unit b
vector 103 partial_mesh.es_5.app[0].source packetLengths:vector ETV
attr interpolationmode none
attr moduledisplaypath partial_mesh.es_5.tsn-1.source
attr recordingmode vector
attr source packetLength(packetPushed)
attr title "packet lengths"
attr unit b
vector 104 partial_mesh.es_5.app[5].source packetLengths:vector ETV
attr interpolationmode none
attr moduledisplaypath partial_mesh.es_5.tsn-22.source
attr recordingmode vector
attr source packetLength(packetPushed)
attr title "packet lengths"
attr unit b
vector 105 partial_mesh.es_5.app[7].source packetLengths:vector ETV
attr interpolationmode none
attr moduledisplaypath partial_mesh.es_5.tsn-33.source
attr recordingmode vector
attr source packetLength(packetPushed)
attr title "packet lengths"
attr unit b
vector 106 partial_mesh.es_5.app[8].source packetLengths:vector ETV
attr interpolationmode none
attr moduledisplaypath partial_mesh.es_5.tsn-34.source
attr recordingmode vector
attr source packetLength(packetPushed)
attr title "packet lengths"
attr unit b
vector 107 partial_mesh.es_5.app[9].source packetLengths:vector ETV
attr interpolationmode none
attr moduledisplaypath partial_mesh.es_5.tsn-38.source
attr recordingmode vector
attr source packetLength(packetPushed)
attr title "packet lengths"
attr unit b
vector 108 partial_mesh.es_5.app[11].source packetLengths:vector ETV
attr interpolationmode none
attr moduledisplaypath partial_mesh.es_5.avb-40.source
attr recordingmode vector
attr source packetLength(packetPushed)
attr title "packet lengths"
attr unit b
vector 109 partial_mesh.es_5.app[12].source packetLengths:vector ETV
attr interpolationmode none
attr moduledisplaypath partial_mesh.es_5.avb-44.source
attr recordingmode vector
attr source packetLength(packetPushed)
attr title "packet lengths"
attr unit b
vector 110 partial_mesh.es_5.app[14].source packetLengths:vector ETV
attr interpolationmode none
attr moduledisplaypath partial_mesh.es_5.avb-55.source
attr recordingmode vector
attr source packetLength(packetPushed)
attr title "packet lengths"
attr unit b
vector 111 partial_mesh.es_6.app[0].source packetLengths:vector ETV
attr interpolationmode none
attr moduledisplaypath partial_mesh.es_6.tsn-0.source
attr recordingmode vector
attr source packetLength(packetPushed)
attr title "packet lengths"
attr unit b
vector 112 partial_mesh.es_6.app[4].source packetLengths:vector ETV
attr interpolationmode none
attr moduledisplaypath partial_mesh.es_6.tsn-12.source
attr recordingmode vector
attr source packetLength(packetPushed)
attr title "packet lengths"
attr unit b
vector 113 partial_mesh.es_6.app[5].source packetLengths:vector ETV
attr interpolationmode none
attr moduledisplaypath partial_mesh.es_6.tsn-16.source
attr recordingmode vector
attr source packetLength(packetPushed)
attr title "packet lengths"
attr unit b
vector 114 partial_mesh.es_6.app[6].source packetLengths:vector ETV
attr interpolationmode none
attr moduledisplaypath partial_mesh.es_6.tsn-20.source
attr recordingmode vector
attr source packetLength(packetPushed)
attr title "packet lengths"
attr unit b
vector 115 partial_mesh.es_6.app[8].source packetLengths:vector ETV
attr interpolationmode none
[...]
4979	6454302 25 15868 15868 0.001 0.001 1 2176000 2176000 2176000 4734976000000
4980	6454327 19 15868 15868 0.001 0.001 1 0 0 0 0
4981	6454346 19 15868 15868 0.001 0.001 1 0 0 0 0
4982	6454365 19 15868 15868 0.001 0.001 1 0 0 0 0
4983	6454384 19 15868 15868 0.001 0.001 1 0 0 0 0
4984	6454403 19 15868 15868 0.001 0.001 1 0 0 0 0
4985	6454422 19 15868 15868 0.001 0.001 1 0 0 0 0
4986	6454441 19 15868 15868 0.001 0.001 1 0 0 0 0
4987	6454460 19 15868 15868 0.001 0.001 1 0 0 0 0
4988	6454479 19 15868 15868 0.001 0.001 1 0 0 0 0
4989	6454498 19 15868 15868 0.001 0.001 1 0 0 0 0
4990	6454517 27 15868 15868 0.001 0.001 1 228352000 228352000 228352000 5.2144635904e+16
4991	6454544 27 15868 15868 0.001 0.001 1 228352000 228352000 228352000 5.2144635904e+16
4992	6454571 27 15868 15868 0.001 0.001 1 235616000 235616000 235616000 5.5514899456e+16
4993	6454598 27 15868 15868 0.001 0.001 1 235616000 235616000 235616000 5.5514899456e+16
4994	6454625 27 15868 15868 0.001 0.001 1 235616000 235616000 235616000 5.5514899456e+16
4995	6454652 19 15868 15868 0.001 0.001 1 0 0 0 0
4996	6454671 27 15868 15868 0.001 0.001 1 237664000 237664000 237664000 5.6484176896e+16
4997	6454698 19 15868 15868 0.001 0.001 1 0 0 0 0
4998	6454717 27 15868 15868 0.001 0.001 1 258880000 258880000 258880000 6.70188544e+16
4999	6454744 27 15868 15868 0.001 0.001 1 366832000 366832000 366832000 1.34565716224e+17
5000	6454771 26 15868 15868 0.001 0.001 1 11584000 11584000 11584000 1.34189056e+14
5001	6454797 26 15868 15868 0.001 0.001 1 11584000 11584000 11584000 1.34189056e+14
5002	6454823 25 15868 15868 0.001 0.001 1 5040000 5040000 5040000 25401600000000
5003	6454848 25 15868 15868 0.001 0.001 1 5040000 5040000 5040000 25401600000000
5004	6454873 19 15868 15868 0.001 0.001 1 0 0 0 0
5005	6454892 19 15868 15868 0.001 0.001 1 0 0 0 0
5006	6454911 19 15868 15868 0.001 0.001 1 0 0 0 0
5007	6454930 19 15868 15868 0.001 0.001 1 0 0 0 0
5008	6454949 19 15868 15868 0.001 0.001 1 0 0 0 0
5009	6454968 19 15868 15868 0.001 0.001 1 0 0 0 0
5010	6454987 19 15868 15868 0.001 0.001 1 0 0 0 0
5011	6455006 19 15868 15868 0.001 0.001 1 0 0 0 0
5012	6455025 19 15868 15868 0.001 0.001 1 0 0 0 0
5013	6455044 19 15868 15868 0.001 0.001 1 0 0 0 0
5014	6455063 27 15868 15868 0.001 0.001 1 350208000 350208000 350208000 1.22645643264e+17
5015	6455090 27 15868 15868 0.001 0.001 1 350208000 350208000 350208000 1.22645643264e+17
5016	6455117 27 15868 15868 0.001 0.001 1 366832000 366832000 366832000 1.34565716224e+17
5017	6455144 27 15868 15868 0.001 0.001 1 366832000 366832000 366832000 1.34565716224e+17
5018	6455171 27 15868 15868 0.001 0.001 1 366832000 366832000 366832000 1.34565716224e+17
5019	6455198 19 15868 15868 0.001 0.001 1 0 0 0 0
5020	6455217 27 15868 15868 0.001 0.001 1 370544000 370544000 370544000 1.37302855936e+17
5021	6455244 19 15868 15868 0.001 0.001 1 0 0 0 0
5022	6455263 27 15868 15868 0.001 0.001 1 348960000 348960000 348960000 1.217730816e+17
5023	6455290 27 15868 15868 0.001 0.001 1 366400000 366400000 366400000 1.3424896e+17
5024	6455317 26 15868 15868 0.001 0.001 1 12720000 12720000 12720000 1.617984e+14
5025	6455343 26 15868 15868 0.001 0.001 1 13568000 13568000 13568000 1.84090624e+14
5026	6455369 25 15868 15868 0.001 0.001 1 2624000 2624000 2624000 6885376000000
5027	6455394 25 15868 15868 0.001 0.001 1 2624000 2624000 2624000 6885376000000
5028	6455419 19 15868 15868 0.001 0.001 1 0 0 0 0
5029	6455438 19 15868 15868 0.001 0.001 1 0 0 0 0
5030	6455457 19 15868 15868 0.001 0.001 1 0 0 0 0
5031	6455476 19 15868 15868 0.001 0.001 1 0 0 0 0
5032	6455495 19 15868 15868 0.001 0.001 1 0 0 0 0
5033	6455514 19 15868 15868 0.001 0.001 1 0 0 0 0
5034	6455533 19 15868 15868 0.001 0.001 1 0 0 0 0
5035	6455552 19 15868 15868 0.001 0.001 1 0 0 0 0
5036	6455571 19 15868 15868 0.001 0.001 1 0 0 0 0
5037	6455590 19 15868 15868 0.001 0.001 1 0 0 0 0
5038	6455609 27 15868 15868 0.001 0.001 1 350208000 350208000 350208000 1.22645643264e+17
5039	6455636 27 15868 15868 0.001 0.001 1 350208000 350208000 350208000 1.22645643264e+17
5040	6455663 27 15868 15868 0.001 0.001 1 365552000 365552000 365552000 1.33628264704e+17
5041	6455690 27 15868 15868 0.001 0.001 1 365552000 365552000 365552000 1.33628264704e+17
5042	6455717 27 15868 15868 0.001 0.001 1 365552000 365552000 365552000 1.33628264704e+17
5043	6455744 19 15868 15868 0.001 0.001 1 0 0 0 0
5044	6455763 27 15868 15868 0.001 0.001 1 369264000 369264000 369264000 1.36355901696e+17
5045	6455790 19 15868 15868 0.001 0.001 1 0 0 0 0
5046	6455809 27 15868 15868 0.001 0.001 1 331488000 331488000 331488000 1.09884294144e+17
5047	6455836 19 15868 15868 0.001 0.001 1 0 0 0 0
5048	6455855 19 15868 15868 0.001 0.001 1 0 0 0 0
5049	6455874 19 15868 15868 0.001 0.001 1 0 0 0 0
5050	6455893 19 15868 15868 0.001 0.001 1 0 0 0 0
5051	6455912 19 15868 15868 0.001 0.001 1 0 0 0 0
5052	6455931 27 15868 15868 0.001 0.001 1 349936000 349936000 349936000 1.22455204096e+17
5053	6455958 26 15868 15868 0.001 0.001 1 13360000 13360000 13360000 1.784896e+14
5054	6455984 26 15868 15868 0.001 0.001 1 17072000 17072000 17072000 2.91453184e+14
5055	6456010 25 15868 15868 0.001 0.001 1 1008000 1008000 1008000 1016064000000
5056	6456035 25 15868 15868 0.001 0.001 1 1856000 1856000 1856000 3444736000000
5057	6456060 19 15868 15868 0.001 0.001 1 0 0 0 0
5058	6456079 19 15868 15868 0.001 0.001 1 0 0 0 0
5059	6456098 19 15868 15868 0.001 0.001 1 0 0 0 0
5060	6456117 19 15868 15868 0.001 0.001 1 0 0 0 0
5061	6456136 19 15868 15868 0.001 0.001 1 0 0 0 0
5062	6456155 19 15868 15868 0.001 0.001 1 0 0 0 0
5063	6456174 19 15868 15868 0.001 0.001 1 0 0 0 0
5064	6456193 19 15868 15868 0.001 0.001 1 0 0 0 0
5065	6456212 19 15868 15868 0.001 0.001 1 0 0 0 0
5066	6456231 19 15868 15868 0.001 0.001 1 0 0 0 0
5067	6456250 27 15868 15868 0.001 0.001 1 331008000 331008000 331008000 1.09566296064e+17
5068	6456277 27 15868 15868 0.001 0.001 1 331008000 331008000 331008000 1.09566296064e+17
5069	6456304 27 15868 15868 0.001 0.001 1 345376000 345376000 345376000 1.19284581376e+17
5070	6456331 27 15868 15868 0.001 0.001 1 345376000 345376000 345376000 1.19284581376e+17
5071	6456358 27 15868 15868 0.001 0.001 1 345376000 345376000 345376000 1.19284581376e+17
5072	6456385 19 15868 15868 0.001 0.001 1 0 0 0 0
5073	6456404 27 15868 15868 0.001 0.001 1 348960000 348960000 348960000 1.217730816e+17
5074	6456431 19 15868 15868 0.001 0.001 1 0 0 0 0
5075	6456450 27 15868 15868 0.001 0.001 1 370544000 370544000 370544000 1.37302855936e+17
5076	6456477 27 15868 15868 0.001 0.001 1 273472000 273472000 273472000 7.4786934784e+16
5077	6456504 25 15868 15868 0.001 0.001 1 9312000 9312000 9312000 86713344000000
5078	6456529 26 15868 15868 0.001 0.001 1 11408000 11408000 11408000 1.30142464e+14
5079	6456555 25 15868 15868 0.001 0.001 1 5040000 5040000 5040000 25401600000000
5080	6456580 25 15868 15868 0.001 0.001 1 5040000 5040000 5040000 25401600000000
5081	6456605 19 15868 15868 0.001 0.001 1 0 0 0 0
5082	6456624 19 15868 15868 0.001 0.001 1 0 0 0 0
5083	6456643 19 15868 15868 0.001 0.001 1 0 0 0 0
5084	6456662 19 15868 15868 0.001 0.001 1 0 0 0 0
5085	6456681 19 15868 15868 0.001 0.001 1 0 0 0 0
5086	6456700 19 15868 15868 0.001 0.001 1 0 0 0 0
5087	6456719 19 15868 15868 0.001 0.001 1 0 0 0 0
5088	6456738 19 15868 15868 0.001 0.001 1 0 0 0 0
5089	6456757 19 15868 15868 0.001 0.001 1 0 0 0 0
5090	6456776 19 15868 15868 0.001 0.001 1 0 0 0 0
5091	6456795 27 15868 15868 0.001 0.001 1 257024000 257024000 257024000 6.6061336576e+16
5092	6456822 27 15868 15868 0.001 0.001 1 257024000 257024000 257024000 6.6061336576e+16
5093	6456849 27 15868 15868 0.001 0.001 1 271376000 271376000 271376000 7.3644933376e+16
5094	6456876 27 15868 15868 0.001 0.001 1 271376000 271376000 271376000 7.3644933376e+16
5095	6456903 27 15868 15868 0.001 0.001 1 271376000 271376000 271376000 7.3644933376e+16
5096	6456930 19 15868 15868 0.001 0.001 1 0 0 0 0
5097	6456949 27 15868 15868 0.001 0.001 1 274320000 274320000 274320000 7.52514624e+16
5098	6456976 19 15868 15868 0.001 0.001 1 0 0 0 0
5099	6456995 27 15868 15868 0.001 0.001 1 422624000 422624000 422624000 1.78611045376e+17
5100	6457022 27 15868 15868 0.001 0.001 1 172784000 172784000 172784000 2.9854310656e+16
5101	6457049 25 15868 15868 0.001 0.001 1 5616000 5616000 5616000 31539456000000
5102	6457074 25 15868 15868 0.001 0.001 1 5616000 5616000 5616000 31539456000000
5103	6457099 19 15868 15868 0.001 0.001 1 0 0 0 0
5104	6457118 19 15868 15868 0.001 0.001 1 0 0 0 0
5105	6457137 19 15868 15868 0.001 0.001 1 0 0 0 0
5106	6457156 19 15868 15868 0.001 0.001 1 0 0 0 0
5107	6457175 19 15868 15868 0.001 0.001 1 0 0 0 0
5108	6457194 19 15868 15868 0.001 0.001 1 0 0 0 0
5109	6457213 19 15868 15868 0.001 0.001 1 0 0 0 0
5110	6457232 19 15868 15868 0.001 0.001 1 0 0 0 0
5111	6457251 19 15868 15868 0.001 0.001 1 0 0 0 0
5112	6457270 19 15868 15868 0.001 0.001 1 0 0 0 0
5113	6457289 19 15868 15868 0.001 0.001 1 0 0 0 0
5114	6457308 19 15868 15868 0.001 0.001 1 0 0 0 0
5115	6457327 27 15868 15868 0.001 0.001 1 167168000 167168000 167168000 2.7945140224e+16
5116	6457354 27 15868 15868 0.001 0.001 1 167168000 167168000 167168000 2.7945140224e+16
5117	6457381 27 15868 15868 0.001 0.001 1 172784000 172784000 172784000 2.9854310656e+16
5118	6457408 27 15868 15868 0.001 0.001 1 172784000 172784000 172784000 2.9854310656e+16
5119	6457435 27 15868 15868 0.001 0.001 1 172784000 172784000 172784000 2.9854310656e+16
5120	6457462 19 15868 15868 0.001 0.001 1 0 0 0 0
5121	6457481 27 15868 15868 0.001 0.001 1 174256000 174256000 174256000 3.0365153536e+16
5122	6457508 19 15868 15868 0.001 0.001 1 0 0 0 0
5123	6457527 26 15868 15868 0.001 0.001 1 11472000 11472000 11472000 1.31606784e+14
5124	6457553 19 15868 15868 0.001 0.001 1 0 0 0 0
5125	6457572 19 15868 15868 0.001 0.001 1 0 0 0 0
5126	6457591 19 15868 15868 0.001 0.001 1 0 0 0 0
5127	6457610 19 15868 15868 0.001 0.001 1 0 0 0 0
5128	6457629 19 15868 15868 0.001 0.001 1 0 0 0 0
5129	6457648 27 15868 15868 0.001 0.001 1 419760000 419760000 419760000 1.761984576e+17
5130	6457675 26 15868 15868 0.001 0.001 1 11744000 11744000 11744000 1.37921536e+14
5131	6457701 26 15868 15868 0.001 0.001 1 11744000 11744000 11744000 1.37921536e+14
5132	6457727 25 15868 15868 0.001 0.001 1 1856000 1856000 1856000 3444736000000
5133	6457752 25 15868 15868 0.001 0.001 1 3024000 3024000 3024000 9144576000000
5134	6457777 19 15868 15868 0.001 0.001 1 0 0 0 0
5135	6457796 19 15868 15868 0.001 0.001 1 0 0 0 0
5136	6457815 19 15868 15868 0.001 0.001 1 0 0 0 0
5137	6457834 19 15868 15868 0.001 0.001 1 0 0 0 0
5138	6457853 19 15868 15868 0.001 0.001 1 0 0 0 0
5139	6457872 19 15868 15868 0.001 0.001 1 0 0 0 0
5140	6457891 19 15868 15868 0.001 0.001 1 0 0 0 0
5141	6457910 19 15868 15868 0.001 0.001 1 0 0 0 0
5142	6457929 19 15868 15868 0.001 0.001 1 0 0 0 0
5143	6457948 19 15868 15868 0.001 0.001 1 0 0 0 0
5144	6457967 27 15868 15868 0.001 0.001 1 404992000 404992000 404992000 1.64018520064e+17
5145	6457994 27 15868 15868 0.001 0.001 1 404992000 404992000 404992000 1.64018520064e+17
5146	6458021 27 15868 15868 0.001 0.001 1 418592000 418592000 418592000 1.75219262464e+17
5147	6458048 27 15868 15868 0.001 0.001 1 418592000 418592000 418592000 1.75219262464e+17
5148	6458075 27 15868 15868 0.001 0.001 1 418592000 418592000 418592000 1.75219262464e+17
5149	6458102 19 15868 15868 0.001 0.001 1 0 0 0 0
5150	6458121 27 15868 15868 0.001 0.001 1 422624000 422624000 422624000 1.78611045376e+17
5151	6458148 19 15868 15868 0.001 0.001 1 0 0 0 0
5152	6458167 27 15868 15868 0.001 0.001 1 274320000 274320000 274320000 7.52514624e+16
5153	6458194 27 15868 15868 0.001 0.001 1 506672000 506672000 506672000 2.56716515584e+17
5154	6458221 25 15868 15868 0.001 0.001 1 8800000 8800000 8800000 77440000000000
5155	6458246 25 15868 15868 0.001 0.001 1 8800000 8800000 8800000 77440000000000
5156	6458271 25 15868 15868 0.001 0.001 1 3024000 3024000 3024000 9144576000000
5157	6458296 25 15868 15868 0.001 0.001 1 3024000 3024000 3024000 9144576000000
5158	6458321 19 15868 15868 0.001 0.001 1 0 0 0 0
5159	6458340 19 15868 15868 0.001 0.001 1 0 0 0 0
5160	6458359 19 15868 15868 0.001 0.001 1 0 0 0 0
5161	6458378 19 15868 15868 0.001 0.001 1 0 0 0 0
5162	6458397 19 15868 15868 0.001 0.001 1 0 0 0 0
5163	6458416 19 15868 15868 0.001 0.001 1 0 0 0 0
5164	6458435 19 15868 15868 0.001 0.001 1 0 0 0 0
5165	6458454 19 15868 15868 0.001 0.001 1 0 0 0 0
5166	6458473 19 15868 15868 0.001 0.001 1 0 0 0 0
5167	6458492 19 15868 15868 0.001 0.001 1 0 0 0 0
5168	6458511 27 15868 15868 0.001 0.001 1 486400000 486400000 486400000 2.3658496e+17
5169	6458538 27 15868 15868 0.001 0.001 1 494848000 494848000 494848000 2.44874543104e+17
5170	6458565 27 15868 15868 0.001 0.001 1 498224000 498224000 498224000 2.48227154176e+17
5171	6458592 27 15868 15868 0.001 0.001 1 498224000 498224000 498224000 2.48227154176e+17
5172	6458619 27 15868 15868 0.001 0.001 1 498224000 498224000 498224000 2.48227154176e+17
5173	6458646 19 15868 15868 0.001 0.001 1 0 0 0 0
5174	6458665 27 15868 15868 0.001 0.001 1 503088000 503088000 503088000 2.53097535744e+17
5175	6458692 19 15868 15868 0.001 0.001 1 0 0 0 0
5176	6458711 27 15868 15868 0.001 0.001 1 520624000 520624000 520624000 2.71049349376e+17
5177	6458738 27 15868 15868 0.001 0.001 1 101808000 101808000 101808000 1.0364868864e+16
5178	6458765 26 15868 15868 0.001 0.001 1 24192000 24192000 24192000 5.85252864e+14
5179	6458791 26 15868 15868 0.001 0.001 1 25808000 25808000 25808000 6.66052864e+14
5180	6458817 24 15868 15868 0.001 0.001 1 768000 768000 768000 589824000000
5181	6458841 25 15868 15868 0.001 0.001 1 2016000 2016000 2016000 4064256000000
5182	6458866 19 15868 15868 0.001 0.001 1 0 0 0 0
5183	6458885 19 15868 15868 0.001 0.001 1 0 0 0 0
5184	6458904 19 15868 15868 0.001 0.001 1 0 0 0 0
5185	6458923 19 15868 15868 0.001 0.001 1 0 0 0 0
5186	6458942 19 15868 15868 0.001 0.001 1 0 0 0 0
5187	6458961 19 15868 15868 0.001 0.001 1 0 0 0 0
5188	6458980 19 15868 15868 0.001 0.001 1 0 0 0 0
5189	6458999 19 15868 15868 0.001 0.001 1 0 0 0 0
5190	6459018 19 15868 15868 0.001 0.001 1 0 0 0 0
5191	6459037 19 15868 15868 0.001 0.001 1 0 0 0 0
5192	6459056 26 15868 15868 0.001 0.001 1 73984000 73984000 73984000 5.473632256e+15
5193	6459082 26 15868 15868 0.001 0.001 1 73984000 73984000 73984000 5.473632256e+15
5194	6459108 26 15868 15868 0.001 0.001 1 98944000 98944000 98944000 9.789915136e+15
5195	6459134 26 15868 15868 0.001 0.001 1 98944000 98944000 98944000 9.789915136e+15
5196	6459160 26 15868 15868 0.001 0.001 1 98944000 98944000 98944000 9.789915136e+15
5197	6459186 19 15868 15868 0.001 0.001 1 0 0 0 0
5198	6459205 27 15868 15868 0.001 0.001 1 101376000 101376000 101376000 1.0277093376e+16
5199	6459232 19 15868 15868 0.001 0.001 1 0 0 0 0
5200	6459251 27 15868 15868 0.001 0.001 1 244944000 244944000 244944000 5.9997563136e+16
5201	6459278 27 15868 15868 0.001 0.001 1 406896000 406896000 406896000 1.65564354816e+17
5202	6459305 19 15868 15868 0.001 0.001 1 0 0 0 0
5203	6459324 19 15868 15868 0.001 0.001 1 0 0 0 0
5204	6459343 19 15868 15868 0.001 0.001 1 0 0 0 0
5205	6459362 19 15868 15868 0.001 0.001 1 0 0 0 0
5206	6459381 26 15868 15868 0.001 0.001 1 33200000 33200000 33200000 1.10224e+15
5207	6459407 26 15868 15868 0.001 0.001 1 43056000 43056000 43056000 1.853819136e+15
5208	6459433 25 15868 15868 0.001 0.001 1 2176000 2176000 2176000 4734976000000
5209	6459458 25 15868 15868 0.001 0.001 1 2176000 2176000 2176000 4734976000000
5210	6459483 19 15868 15868 0.001 0.001 1 0 0 0 0
5211	6459502 19 15868 15868 0.001 0.001 1 0 0 0 0
5212	6459521 19 15868 15868 0.001 0.001 1 0 0 0 0
5213	6459540 19 15868 15868 0.001 0.001 1 0 0 0 0
5214	6459559 19 15868 15868 0.001 0.001 1 0 0 0 0
5215	6459578 19 15868 15868 0.001 0.001 1 0 0 0 0
5216	6459597 19 15868 15868 0.001 0.001 1 0 0 0 0
5217	6459616 19 15868 15868 0.001 0.001 1 0 0 0 0
5218	6459635 19 15868 15868 0.001 0.001 1 0 0 0 0
5219	6459654 19 15868 15868 0.001 0.001 1 0 0 0 0
5220	6459673 27 15868 15868 0.001 0.001 1 478976000 478976000 478976000 2.29418008576e+17
5221	6459700 27 15868 15868 0.001 0.001 1 478976000 478976000 478976000 2.29418008576e+17
5222	6459727 27 15868 15868 0.001 0.001 1 514352000 514352000 514352000 2.64557979904e+17
5223	6459754 27 15868 15868 0.001 0.001 1 514352000 514352000 514352000 2.64557979904e+17
5224	6459781 27 15868 15868 0.001 0.001 1 514352000 514352000 514352000 2.64557979904e+17
5225	6459808 19 15868 15868 0.001 0.001 1 0 0 0 0
5226	6459827 27 15868 15868 0.001 0.001 1 520624000 520624000 520624000 2.71049349376e+17
5227	6459854 19 15868 15868 0.001 0.001 1 0 0 0 0
5228	6459873 27 15868 15868 0.001 0.001 1 503088000 503088000 503088000 2.53097535744e+17
5229	6459900 27 15868 15868 0.001 0.001 1 429904000 429904000 429904000 1.84817449216e+17
5230	6459927 25 15868 15868 0.001 0.001 1 7872000 7872000 7872000 61968384000000
5231	6459952 25 15868 15868 0.001 0.001 1 7872000 7872000 7872000 61968384000000
5232	6459977 25 15868 15868 0.001 0.001 1 1168000 1168000 1168000 1364224000000
5233	6460002 25 15868 15868 0.001 0.001 1 1168000 1168000 1168000 1364224000000
5234	6460027 19 15868 15868 0.001 0.001 1 0 0 0 0
5235	6460046 19 15868 15868 0.001 0.001 1 0 0 0 0
5236	6460065 19 15868 15868 0.001 0.001 1 0 0 0 0
5237	6460084 19 15868 15868 0.001 0.001 1 0 0 0 0
5238	6460103 19 15868 15868 0.001 0.001 1 0 0 0 0
5239	6460122 19 15868 15868 0.001 0.001 1 0 0 0 0
5240	6460141 19 15868 15868 0.001 0.001 1 0 0 0 0
5241	6460160 19 15868 15868 0.001 0.001 1 0 0 0 0
5242	6460179 19 15868 15868 0.001 0.001 1 0 0 0 0
5243	6460198 19 15868 15868 0.001 0.001 1 0 0 0 0
5244	6460217 27 15868 15868 0.001 0.001 1 420864000 420864000 420864000 1.77126506496e+17
5245	6460244 27 15868 15868 0.001 0.001 1 420864000 420864000 420864000 1.77126506496e+17
5246	6460271 27 15868 15868 0.001 0.001 1 429904000 429904000 429904000 1.84817449216e+17
5247	6460298 27 15868 15868 0.001 0.001 1 429904000 429904000 429904000 1.84817449216e+17
5248	6460325 27 15868 15868 0.001 0.001 1 429904000 429904000 429904000 1.84817449216e+17
5249	6460352 19 15868 15868 0.001 0.001 1 0 0 0 0
5250	6460371 27 15868 15868 0.001 0.001 1 434128000 434128000 434128000 1.88467120384e+17
5251	6460398 19 15868 15868 0.001 0.001 1 0 0 0 0
5252	6460417 27 15868 15868 0.001 0.001 1 364864000 364864000 364864000 1.33125738496e+17
5253	6460444 27 15868 15868 0.001 0.001 1 436320000 436320000 436320000 1.903751424e+17
5254	6460471 26 15868 15868 0.001 0.001 1 33328000 33328000 33328000 1.110755584e+15
5255	6460497 26 15868 15868 0.001 0.001 1 34864000 34864000 34864000 1.215498496e+15
5256	6460523 25 15868 15868 0.001 0.001 1 1936000 1936000 1936000 3748096000000
5257	6460548 25 15868 15868 0.001 0.001 1 2864000 2864000 2864000 8202496000000
5258	6460573 19 15868 15868 0.001 0.001 1 0 0 0 0
5259	6460592 19 15868 15868 0.001 0.001 1 0 0 0 0
5260	6460611 19 15868 15868 0.001 0.001 1 0 0 0 0
5261	6460630 19 15868 15868 0.001 0.001 1 0 0 0 0
5262	6460649 19 15868 15868 0.001 0.001 1 0 0 0 0
5263	6460668 19 15868 15868 0.001 0.001 1 0 0 0 0
5264	6460687 19 15868 15868 0.001 0.001 1 0 0 0 0
5265	6460706 19 15868 15868 0.001 0.001 1 0 0 0 0
5266	6460725 19 15868 15868 0.001 0.001 1 0 0 0 0
5267	6460744 19 15868 15868 0.001 0.001 1 0 0 0 0
5268	6460763 27 15868 15868 0.001 0.001 1 398592000 398592000 398592000 1.58875582464e+17
5269	6460790 27 15868 15868 0.001 0.001 1 398592000 398592000 398592000 1.58875582464e+17
5270	6460817 27 15868 15868 0.001 0.001 1 433856000 433856000 433856000 1.88231028736e+17
5271	6460844 27 15868 15868 0.001 0.001 1 433856000 433856000 433856000 1.88231028736e+17
5272	6460871 27 15868 15868 0.001 0.001 1 433856000 433856000 433856000 1.88231028736e+17
5273	6460898 19 15868 15868 0.001 0.001 1 0 0 0 0
5274	6460917 27 15868 15868 0.001 0.001 1 439680000 439680000 439680000 1.933185024e+17
5275	6460944 19 15868 15868 0.001 0.001 1 0 0 0 0
5276	6460963 27 15868 15868 0.001 0.001 1 600512000 600512000 600512000 3.60614662144e+17

