file 15336270 1661423507                                        
version 3
run General-0-20220825-18:31:37-7260
attr configname General
attr datetime 20220825-18:31:37
attr datetimef 20220825-183137
attr experiment General
attr inifile auto-generated.ini
attr iterationvars ""
attr iterationvarsd ""
attr iterationvarsf ""
attr measurement ""
attr network partial_mesh
attr processid 7260
attr repetition 0
attr replication #0
attr resultdir results
attr runnumber 0
attr seedset 0
config image-path ../../inet/images
config network partial_mesh
config sim-time-limit 6ms
config record-eventlog false
config **.result-recording-modes all
config *.*.eth[*].bitrate 1Gbps
config **.visualizer.interfaceTableVisualizer.displayInterfaceTables true
config partial_mesh.es_1.numApps 18
config partial_mesh.es_1.hasOutgoingStreams true
config partial_mesh.es_1.hasIncomingStreams true
config partial_mesh.es_2.numApps 20
config partial_mesh.es_2.hasOutgoingStreams true
config partial_mesh.es_2.hasIncomingStreams true
config partial_mesh.es_3.numApps 21
config partial_mesh.es_3.hasOutgoingStreams true
config partial_mesh.es_3.hasIncomingStreams true
config partial_mesh.es_4.numApps 21
config partial_mesh.es_4.hasOutgoingStreams true
config partial_mesh.es_4.hasIncomingStreams true
config partial_mesh.es_5.numApps 17
config partial_mesh.es_5.hasOutgoingStreams true
config partial_mesh.es_5.hasIncomingStreams true
config partial_mesh.es_6.numApps 23
config partial_mesh.es_6.hasOutgoingStreams true
config partial_mesh.es_6.hasIncomingStreams true
config partial_mesh.es_*.hasEgressTrafficShaping true
config partial_mesh.s_*.hasIncomingStreams true
config partial_mesh.s_*.hasOutgoingStreams true
config partial_mesh.s_*.hasEgressTrafficShaping true
config partial_mesh.es_6.app[0].typename UdpSourceApp
config partial_mesh.es_6.app[0].display-name tsn-0
config partial_mesh.es_6.app[0].io.destAddress "\"es_2\""
config partial_mesh.es_6.app[0].io.destPort 5000
config partial_mesh.es_6.app[0].source.packetNameFormat "\"%M-%m-%c\""
config partial_mesh.es_6.app[0].source.packetLength 40B
config partial_mesh.es_6.app[0].source.productionInterval 100us
config partial_mesh.es_6.app[0].source.initialProductionOffset 0us
config partial_mesh.es_2.app[0].typename UdpSinkApp
config partial_mesh.es_2.app[0].display-name tsn-0
config partial_mesh.es_2.app[0].io.localPort 5000
config partial_mesh.es_5.app[0].typename UdpSourceApp
config partial_mesh.es_5.app[0].display-name tsn-1
config partial_mesh.es_5.app[0].io.destAddress "\"es_6\""
config partial_mesh.es_5.app[0].io.destPort 5001
config partial_mesh.es_5.app[0].source.packetNameFormat "\"%M-%m-%c\""
config partial_mesh.es_5.app[0].source.packetLength 50B
config partial_mesh.es_5.app[0].source.productionInterval 2000us
config partial_mesh.es_5.app[0].source.initialProductionOffset 6us
config partial_mesh.es_6.app[1].typename UdpSinkApp
config partial_mesh.es_6.app[1].display-name tsn-1
config partial_mesh.es_6.app[1].io.localPort 5001
config partial_mesh.es_4.app[0].typename UdpSourceApp
config partial_mesh.es_4.app[0].display-name tsn-2
config partial_mesh.es_4.app[0].io.destAddress "\"es_3\""
config partial_mesh.es_4.app[0].io.destPort 5002
config partial_mesh.es_4.app[0].source.packetNameFormat "\"%M-%m-%c\""
config partial_mesh.es_4.app[0].source.packetLength 50B
config partial_mesh.es_4.app[0].source.productionInterval 1000us
config partial_mesh.es_4.app[0].source.initialProductionOffset 8us
config partial_mesh.es_3.app[0].typename UdpSinkApp
config partial_mesh.es_3.app[0].display-name tsn-2
config partial_mesh.es_3.app[0].io.localPort 5002
config partial_mesh.es_4.app[1].typename UdpSourceApp
config partial_mesh.es_4.app[1].display-name tsn-3
config partial_mesh.es_4.app[1].io.destAddress "\"es_3\""
config partial_mesh.es_4.app[1].io.destPort 5003
config partial_mesh.es_4.app[1].source.packetNameFormat "\"%M-%m-%c\""
config partial_mesh.es_4.app[1].source.packetLength 50B
config partial_mesh.es_4.app[1].source.productionInterval 200us
config partial_mesh.es_4.app[1].source.initialProductionOffset 0us
config partial_mesh.es_3.app[1].typename UdpSinkApp
config partial_mesh.es_3.app[1].display-name tsn-3
config partial_mesh.es_3.app[1].io.localPort 5003
config partial_mesh.es_1.app[0].typename UdpSourceApp
config partial_mesh.es_1.app[0].display-name tsn-4
config partial_mesh.es_1.app[0].io.destAddress "\"es_4\""
config partial_mesh.es_1.app[0].io.destPort 5004
config partial_mesh.es_1.app[0].source.packetNameFormat "\"%M-%m-%c\""
config partial_mesh.es_1.app[0].source.packetLength 80B
config partial_mesh.es_1.app[0].source.productionInterval 200us
config partial_mesh.es_1.app[0].source.initialProductionOffset 0us
config partial_mesh.es_4.app[2].typename UdpSinkApp
config partial_mesh.es_4.app[2].display-name tsn-4
config partial_mesh.es_4.app[2].io.localPort 5004
config partial_mesh.es_3.app[2].typename UdpSourceApp
config partial_mesh.es_3.app[2].display-name tsn-5
config partial_mesh.es_3.app[2].io.destAddress "\"es_6\""
config partial_mesh.es_3.app[2].io.destPort 5005
config partial_mesh.es_3.app[2].source.packetNameFormat "\"%M-%m-%c\""
config partial_mesh.es_3.app[2].source.packetLength 70B
config partial_mesh.es_3.app[2].source.productionInterval 400us
config partial_mesh.es_3.app[2].source.initialProductionOffset 4us
config partial_mesh.es_6.app[2].typename UdpSinkApp
config partial_mesh.es_6.app[2].display-name tsn-5
config partial_mesh.es_6.app[2].io.localPort 5005
config partial_mesh.es_1.app[1].typename UdpSourceApp
config partial_mesh.es_1.app[1].display-name tsn-6
config partial_mesh.es_1.app[1].io.destAddress "\"es_3\""
config partial_mesh.es_1.app[1].io.destPort 5006
config partial_mesh.es_1.app[1].source.packetNameFormat "\"%M-%m-%c\""
config partial_mesh.es_1.app[1].source.packetLength 40B
config partial_mesh.es_1.app[1].source.productionInterval 200us
config partial_mesh.es_1.app[1].source.initialProductionOffset 2us
config partial_mesh.es_3.app[3].typename UdpSinkApp
config partial_mesh.es_3.app[3].display-name tsn-6
config partial_mesh.es_3.app[3].io.localPort 5006
config partial_mesh.es_3.app[4].typename UdpSourceApp
config partial_mesh.es_3.app[4].display-name tsn-7
config partial_mesh.es_3.app[4].io.destAddress "\"es_2\""
config partial_mesh.es_3.app[4].io.destPort 5007
config partial_mesh.es_3.app[4].source.packetNameFormat "\"%M-%m-%c\""
config partial_mesh.es_3.app[4].source.packetLength 50B
config partial_mesh.es_3.app[4].source.productionInterval 500us
config partial_mesh.es_3.app[4].source.initialProductionOffset 8us
config partial_mesh.es_2.app[1].typename UdpSinkApp
config partial_mesh.es_2.app[1].display-name tsn-7
config partial_mesh.es_2.app[1].io.localPort 5007
config partial_mesh.es_2.app[2].typename UdpSourceApp
config partial_mesh.es_2.app[2].display-name tsn-8
config partial_mesh.es_2.app[2].io.destAddress "\"es_5\""
config partial_mesh.es_2.app[2].io.destPort 5008
config partial_mesh.es_2.app[2].source.packetNameFormat "\"%M-%m-%c\""
config partial_mesh.es_2.app[2].source.packetLength 90B
config partial_mesh.es_2.app[2].source.productionInterval 500us
config partial_mesh.es_2.app[2].source.initialProductionOffset 5us
config partial_mesh.es_5.app[1].typename UdpSinkApp
config partial_mesh.es_5.app[1].display-name tsn-8
config partial_mesh.es_5.app[1].io.localPort 5008
config partial_mesh.es_3.app[5].typename UdpSourceApp
config partial_mesh.es_3.app[5].display-name tsn-9
config partial_mesh.es_3.app[5].io.destAddress "\"es_6\""
config partial_mesh.es_3.app[5].io.destPort 5009
config partial_mesh.es_3.app[5].source.packetNameFormat "\"%M-%m-%c\""
config partial_mesh.es_3.app[5].source.packetLength 90B
config partial_mesh.es_3.app[5].source.productionInterval 1000us
config partial_mesh.es_3.app[5].source.initialProductionOffset 10us
config partial_mesh.es_6.app[3].typename UdpSinkApp
config partial_mesh.es_6.app[3].display-name tsn-9
config partial_mesh.es_6.app[3].io.localPort 5009
config partial_mesh.es_4.app[3].typename UdpSourceApp
config partial_mesh.es_4.app[3].display-name tsn-10
config partial_mesh.es_4.app[3].io.destAddress "\"es_2\""
config partial_mesh.es_4.app[3].io.destPort 5010
config partial_mesh.es_4.app[3].source.packetNameFormat "\"%M-%m-%c\""
config partial_mesh.es_4.app[3].source.packetLength 30B
config partial_mesh.es_4.app[3].source.productionInterval 200us
config partial_mesh.es_4.app[3].source.initialProductionOffset 2us
config partial_mesh.es_2.app[3].typename UdpSinkApp
config partial_mesh.es_2.app[3].display-name tsn-10
config partial_mesh.es_2.app[3].io.localPort 5010
config partial_mesh.es_2.app[4].typename UdpSourceApp
config partial_mesh.es_2.app[4].display-name tsn-11
config partial_mesh.es_2.app[4].io.destAddress "\"es_1\""
config partial_mesh.es_2.app[4].io.destPort 5011
config partial_mesh.es_2.app[4].source.packetNameFormat "\"%M-%m-%c\""
config partial_mesh.es_2.app[4].source.packetLength 60B
config partial_mesh.es_2.app[4].source.productionInterval 100us
config partial_mesh.es_2.app[4].source.initialProductionOffset 0us
config partial_mesh.es_1.app[2].typename UdpSinkApp
config partial_mesh.es_1.app[2].display-name tsn-11
config partial_mesh.es_1.app[2].io.localPort 5011
config partial_mesh.es_6.app[4].typename UdpSourceApp
config partial_mesh.es_6.app[4].display-name tsn-12
config partial_mesh.es_6.app[4].io.destAddress "\"es_4\""
config partial_mesh.es_6.app[4].io.destPort 5012
config partial_mesh.es_6.app[4].source.packetNameFormat "\"%M-%m-%c\""
config partial_mesh.es_6.app[4].source.packetLength 50B
config partial_mesh.es_6.app[4].source.productionInterval 200us
config partial_mesh.es_6.app[4].source.initialProductionOffset 4us
config partial_mesh.es_4.app[4].typename UdpSinkApp
config partial_mesh.es_4.app[4].display-name tsn-12
config partial_mesh.es_4.app[4].io.localPort 5012
config partial_mesh.es_2.app[5].typename UdpSourceApp
config partial_mesh.es_2.app[5].display-name tsn-13
config partial_mesh.es_2.app[5].io.destAddress "\"es_1\""
config partial_mesh.es_2.app[5].io.destPort 5013
config partial_mesh.es_2.app[5].source.packetNameFormat "\"%M-%m-%c\""
config partial_mesh.es_2.app[5].source.packetLength 60B
config partial_mesh.es_2.app[5].source.productionInterval 500us
config partial_mesh.es_2.app[5].source.initialProductionOffset 7us
config partial_mesh.es_1.app[3].typename UdpSinkApp
config partial_mesh.es_1.app[3].display-name tsn-13
config partial_mesh.es_1.app[3].io.localPort 5013
config partial_mesh.es_3.app[6].typename UdpSourceApp
config partial_mesh.es_3.app[6].display-name tsn-14
config partial_mesh.es_3.app[6].io.destAddress "\"es_2\""
config partial_mesh.es_3.app[6].io.destPort 5014
config partial_mesh.es_3.app[6].source.packetNameFormat "\"%M-%m-%c\""
config partial_mesh.es_3.app[6].source.packetLength 100B
config partial_mesh.es_3.app[6].source.productionInterval 400us
config partial_mesh.es_3.app[6].source.initialProductionOffset 2us
config partial_mesh.es_2.app[6].typename UdpSinkApp
config partial_mesh.es_2.app[6].display-name tsn-14
config partial_mesh.es_2.app[6].io.localPort 5014
config partial_mesh.es_3.app[7].typename UdpSourceApp
config partial_mesh.es_3.app[7].display-name tsn-15
config partial_mesh.es_3.app[7].io.destAddress "\"es_5\""
config partial_mesh.es_3.app[7].io.destPort 5015
config partial_mesh.es_3.app[7].source.packetNameFormat "\"%M-%m-%c\""
config partial_mesh.es_3.app[7].source.packetLength 80B
config partial_mesh.es_3.app[7].source.productionInterval 400us
config partial_mesh.es_3.app[7].source.initialProductionOffset 6us
config partial_mesh.es_5.app[2].typename UdpSinkApp
config partial_mesh.es_5.app[2].display-name tsn-15
config partial_mesh.es_5.app[2].io.localPort 5015
config partial_mesh.es_6.app[5].typename UdpSourceApp
config partial_mesh.es_6.app[5].display-name tsn-16
config partial_mesh.es_6.app[5].io.destAddress "\"es_2\""
config partial_mesh.es_6.app[5].io.destPort 5016
config partial_mesh.es_6.app[5].source.packetNameFormat "\"%M-%m-%c\""
config partial_mesh.es_6.app[5].source.packetLength 30B
config partial_mesh.es_6.app[5].source.productionInterval 100us
config partial_mesh.es_6.app[5].source.initialProductionOffset 1us
config partial_mesh.es_2.app[7].typename UdpSinkApp
config partial_mesh.es_2.app[7].display-name tsn-16
config partial_mesh.es_2.app[7].io.localPort 5016
config partial_mesh.es_1.app[4].typename UdpSourceApp
config partial_mesh.es_1.app[4].display-name tsn-17
config partial_mesh.es_1.app[4].io.destAddress "\"es_3\""
config partial_mesh.es_1.app[4].io.destPort 5017
config partial_mesh.es_1.app[4].source.packetNameFormat "\"%M-%m-%c\""
config partial_mesh.es_1.app[4].source.packetLength 50B
config partial_mesh.es_1.app[4].source.productionInterval 400us
config partial_mesh.es_1.app[4].source.initialProductionOffset 3us
config partial_mesh.es_3.app[8].typename UdpSinkApp
config partial_mesh.es_3.app[8].display-name tsn-17
config partial_mesh.es_3.app[8].io.localPort 5017
config partial_mesh.es_3.app[9].typename UdpSourceApp
config partial_mesh.es_3.app[9].display-name tsn-18
config partial_mesh.es_3.app[9].io.destAddress "\"es_4\""
config partial_mesh.es_3.app[9].io.destPort 5018
config partial_mesh.es_3.app[9].source.packetNameFormat "\"%M-%m-%c\""
config partial_mesh.es_3.app[9].source.packetLength 60B
config partial_mesh.es_3.app[9].source.productionInterval 1000us
config partial_mesh.es_3.app[9].source.initialProductionOffset 12us
config partial_mesh.es_4.app[5].typename UdpSinkApp
config partial_mesh.es_4.app[5].display-name tsn-18
config partial_mesh.es_4.app[5].io.localPort 5018
config partial_mesh.es_1.app[5].typename UdpSourceApp
config partial_mesh.es_1.app[5].display-name tsn-19
config partial_mesh.es_1.app[5].io.destAddress "\"es_5\""
config partial_mesh.es_1.app[5].io.destPort 5019
config partial_mesh.es_1.app[5].source.packetNameFormat "\"%M-%m-%c\""
config partial_mesh.es_1.app[5].source.packetLength 30B
config partial_mesh.es_1.app[5].source.productionInterval 500us
config partial_mesh.es_1.app[5].source.initialProductionOffset 7us
config partial_mesh.es_5.app[3].typename UdpSinkApp
config partial_mesh.es_5.app[3].display-name tsn-19
config partial_mesh.es_5.app[3].io.localPort 5019
config partial_mesh.es_6.app[6].typename UdpSourceApp
config partial_mesh.es_6.app[6].display-name tsn-20
config partial_mesh.es_6.app[6].io.destAddress "\"es_5\""
config partial_mesh.es_6.app[6].io.destPort 5020
config partial_mesh.es_6.app[6].source.packetNameFormat "\"%M-%m-%c\""
config partial_mesh.es_6.app[6].source.packetLength 70B
config partial_mesh.es_6.app[6].source.productionInterval 2000us
config partial_mesh.es_6.app[6].source.initialProductionOffset 10us
config partial_mesh.es_5.app[4].typename UdpSinkApp
config partial_mesh.es_5.app[4].display-name tsn-20
config partial_mesh.es_5.app[4].io.localPort 5020
config partial_mesh.es_1.app[6].typename UdpSourceApp
config partial_mesh.es_1.app[6].display-name tsn-21
config partial_mesh.es_1.app[6].io.destAddress "\"es_6\""
config partial_mesh.es_1.app[6].io.destPort 5021
config partial_mesh.es_1.app[6].source.packetNameFormat "\"%M-%m-%c\""
config partial_mesh.es_1.app[6].source.packetLength 90B
config partial_mesh.es_1.app[6].source.productionInterval 1000us
config partial_mesh.es_1.app[6].source.initialProductionOffset 8us
config partial_mesh.es_6.app[7].typename UdpSinkApp
config partial_mesh.es_6.app[7].display-name tsn-21
config partial_mesh.es_6.app[7].io.localPort 5021
config partial_mesh.es_5.app[5].typename UdpSourceApp
config partial_mesh.es_5.app[5].display-name tsn-22
config partial_mesh.es_5.app[5].io.destAddress "\"es_3\""
config partial_mesh.es_5.app[5].io.destPort 5022
config partial_mesh.es_5.app[5].source.packetNameFormat "\"%M-%m-%c\""
config partial_mesh.es_5.app[5].source.packetLength 30B
config partial_mesh.es_5.app[5].source.productionInterval 500us
config partial_mesh.es_5.app[5].source.initialProductionOffset 4us
config partial_mesh.es_3.app[10].typename UdpSinkApp
config partial_mesh.es_3.app[10].display-name tsn-22
config partial_mesh.es_3.app[10].io.localPort 5022
config partial_mesh.es_2.app[8].typename UdpSourceApp
config partial_mesh.es_2.app[8].display-name tsn-23
config partial_mesh.es_2.app[8].io.destAddress "\"es_4\""
config partial_mesh.es_2.app[8].io.destPort 5023
config partial_mesh.es_2.app[8].source.packetNameFormat "\"%M-%m-%c\""
config partial_mesh.es_2.app[8].source.packetLength 30B
config partial_mesh.es_2.app[8].source.productionInterval 400us
config partial_mesh.es_2.app[8].source.initialProductionOffset 4us
config partial_mesh.es_4.app[6].typename UdpSinkApp
config partial_mesh.es_4.app[6].display-name tsn-23
config partial_mesh.es_4.app[6].io.localPort 5023
config partial_mesh.es_6.app[8].typename UdpSourceApp
config partial_mesh.es_6.app[8].display-name tsn-24
config partial_mesh.es_6.app[8].io.destAddress "\"es_3\""
config partial_mesh.es_6.app[8].io.destPort 5024
config partial_mesh.es_6.app[8].source.packetNameFormat "\"%M-%m-%c\""
config partial_mesh.es_6.app[8].source.packetLength 50B
config partial_mesh.es_6.app[8].source.productionInterval 500us
config partial_mesh.es_6.app[8].source.initialProductionOffset 8us
config partial_mesh.es_3.app[11].typename UdpSinkApp
config partial_mesh.es_3.app[11].display-name tsn-24
config partial_mesh.es_3.app[11].io.localPort 5024
config partial_mesh.es_4.app[7].typename UdpSourceApp
config partial_mesh.es_4.app[7].display-name tsn-25
config partial_mesh.es_4.app[7].io.destAddress "\"es_3\""
config partial_mesh.es_4.app[7].io.destPort 5025
config partial_mesh.es_4.app[7].source.packetNameFormat "\"%M-%m-%c\""
config partial_mesh.es_4.app[7].source.packetLength 70B
config partial_mesh.es_4.app[7].source.productionInterval 400us
config partial_mesh.es_4.app[7].source.initialProductionOffset 6us
config partial_mesh.es_3.app[12].typename UdpSinkApp
config partial_mesh.es_3.app[12].display-name tsn-25
config partial_mesh.es_3.app[12].io.localPort 5025
config partial_mesh.es_2.app[9].typename UdpSourceApp
config partial_mesh.es_2.app[9].display-name tsn-26
config partial_mesh.es_2.app[9].io.destAddress "\"es_3\""
config partial_mesh.es_2.app[9].io.destPort 5026
config partial_mesh.es_2.app[9].source.packetNameFormat "\"%M-%m-%c\""
config partial_mesh.es_2.app[9].source.packetLength 70B
config partial_mesh.es_2.app[9].source.productionInterval 200us
config partial_mesh.es_2.app[9].source.initialProductionOffset 2us
config partial_mesh.es_3.app[13].typename UdpSinkApp
config partial_mesh.es_3.app[13].display-name tsn-26
config partial_mesh.es_3.app[13].io.localPort 5026
config partial_mesh.es_4.app[8].typename UdpSourceApp
config partial_mesh.es_4.app[8].display-name tsn-27
config partial_mesh.es_4.app[8].io.destAddress "\"es_6\""
config partial_mesh.es_4.app[8].io.destPort 5027
config partial_mesh.es_4.app[8].source.packetNameFormat "\"%M-%m-%c\""
config partial_mesh.es_4.app[8].source.packetLength 40B
config partial_mesh.es_4.app[8].source.productionInterval 200us
config partial_mesh.es_4.app[8].source.initialProductionOffset 3us
config partial_mesh.es_6.app[9].typename UdpSinkApp
config partial_mesh.es_6.app[9].display-name tsn-27
config partial_mesh.es_6.app[9].io.localPort 5027
config partial_mesh.es_1.app[7].typename UdpSourceApp
config partial_mesh.es_1.app[7].display-name tsn-28
config partial_mesh.es_1.app[7].io.destAddress "\"es_2\""
config partial_mesh.es_1.app[7].io.destPort 5028
config partial_mesh.es_1.app[7].source.packetNameFormat "\"%M-%m-%c\""
config partial_mesh.es_1.app[7].source.packetLength 100B
config partial_mesh.es_1.app[7].source.productionInterval 2000us
config partial_mesh.es_1.app[7].source.initialProductionOffset 10us
config partial_mesh.es_2.app[10].typename UdpSinkApp
config partial_mesh.es_2.app[10].display-name tsn-28
config partial_mesh.es_2.app[10].io.localPort 5028
config partial_mesh.es_1.app[8].typename UdpSourceApp
config partial_mesh.es_1.app[8].display-name tsn-29
config partial_mesh.es_1.app[8].io.destAddress "\"es_3\""
config partial_mesh.es_1.app[8].io.destPort 5029
config partial_mesh.es_1.app[8].source.packetNameFormat "\"%M-%m-%c\""
config partial_mesh.es_1.app[8].source.packetLength 70B
config partial_mesh.es_1.app[8].source.productionInterval 400us
config partial_mesh.es_1.app[8].source.initialProductionOffset 5us
config partial_mesh.es_3.app[14].typename UdpSinkApp
config partial_mesh.es_3.app[14].display-name tsn-29
config partial_mesh.es_3.app[14].io.localPort 5029
config partial_mesh.es_6.app[10].typename UdpSourceApp
config partial_mesh.es_6.app[10].display-name tsn-30
config partial_mesh.es_6.app[10].io.destAddress "\"es_4\""
config partial_mesh.es_6.app[10].io.destPort 5030
config partial_mesh.es_6.app[10].source.packetNameFormat "\"%M-%m-%c\""
config partial_mesh.es_6.app[10].source.packetLength 90B
config partial_mesh.es_6.app[10].source.productionInterval 2000us
config partial_mesh.es_6.app[10].source.initialProductionOffset 13us
config partial_mesh.es_4.app[9].typename UdpSinkApp
config partial_mesh.es_4.app[9].display-name tsn-30
config partial_mesh.es_4.app[9].io.localPort 5030
config partial_mesh.es_4.app[10].typename UdpSourceApp
config partial_mesh.es_4.app[10].display-name tsn-31
config partial_mesh.es_4.app[10].io.destAddress "\"es_2\""
config partial_mesh.es_4.app[10].io.destPort 5031
config partial_mesh.es_4.app[10].source.packetNameFormat "\"%M-%m-%c\""
config partial_mesh.es_4.app[10].source.packetLength 70B
config partial_mesh.es_4.app[10].source.productionInterval 200us
config partial_mesh.es_4.app[10].source.initialProductionOffset 4us
config partial_mesh.es_2.app[11].typename UdpSinkApp
config partial_mesh.es_2.app[11].display-name tsn-31
config partial_mesh.es_2.app[11].io.localPort 5031
config partial_mesh.es_6.app[11].typename UdpSourceApp
config partial_mesh.es_6.app[11].display-name tsn-32
config partial_mesh.es_6.app[11].io.destAddress "\"es_5\""
config partial_mesh.es_6.app[11].io.destPort 5032
config partial_mesh.es_6.app[11].source.packetNameFormat "\"%M-%m-%c\""
config partial_mesh.es_6.app[11].source.packetLength 70B
config partial_mesh.es_6.app[11].source.productionInterval 400us
config partial_mesh.es_6.app[11].source.initialProductionOffset 6us
config partial_mesh.es_5.app[6].typename UdpSinkApp
config partial_mesh.es_5.app[6].display-name tsn-32
config partial_mesh.es_5.app[6].io.localPort 5032
config partial_mesh.es_5.app[7].typename UdpSourceApp
config partial_mesh.es_5.app[7].display-name tsn-33
config partial_mesh.es_5.app[7].io.destAddress "\"es_4\""
config partial_mesh.es_5.app[7].io.destPort 5033
config partial_mesh.es_5.app[7].source.packetNameFormat "\"%M-%m-%c\""
config partial_mesh.es_5.app[7].source.packetLength 60B
config partial_mesh.es_5.app[7].source.productionInterval 500us
config partial_mesh.es_5.app[7].source.initialProductionOffset 2us
config partial_mesh.es_4.app[11].typename UdpSinkApp
config partial_mesh.es_4.app[11].display-name tsn-33
config partial_mesh.es_4.app[11].io.localPort 5033
config partial_mesh.es_5.app[8].typename UdpSourceApp
config partial_mesh.es_5.app[8].display-name tsn-34
config partial_mesh.es_5.app[8].io.destAddress "\"es_3\""
config partial_mesh.es_5.app[8].io.destPort 5034
config partial_mesh.es_5.app[8].source.packetNameFormat "\"%M-%m-%c\""
config partial_mesh.es_5.app[8].source.packetLength 50B
config partial_mesh.es_5.app[8].source.productionInterval 200us
config partial_mesh.es_5.app[8].source.initialProductionOffset 0us
config partial_mesh.es_3.app[15].typename UdpSinkApp
config partial_mesh.es_3.app[15].display-name tsn-34
config partial_mesh.es_3.app[15].io.localPort 5034
config partial_mesh.es_3.app[16].typename UdpSourceApp
config partial_mesh.es_3.app[16].display-name tsn-35
config partial_mesh.es_3.app[16].io.destAddress "\"es_2\""
config partial_mesh.es_3.app[16].io.destPort 5035
config partial_mesh.es_3.app[16].source.packetNameFormat "\"%M-%m-%c\""
config partial_mesh.es_3.app[16].source.packetLength 50B
config partial_mesh.es_3.app[16].source.productionInterval 100us
config partial_mesh.es_3.app[16].source.initialProductionOffset 0us
config partial_mesh.es_2.app[12].typename UdpSinkApp
config partial_mesh.es_2.app[12].display-name tsn-35
config partial_mesh.es_2.app[12].io.localPort 5035
config partial_mesh.es_6.app[12].typename UdpSourceApp
config partial_mesh.es_6.app[12].display-name tsn-36
config partial_mesh.es_6.app[12].io.destAddress "\"es_1\""
config partial_mesh.es_6.app[12].io.destPort 5036
config partial_mesh.es_6.app[12].source.packetNameFormat "\"%M-%m-%c\""
config partial_mesh.es_6.app[12].source.packetLength 40B
config partial_mesh.es_6.app[12].source.productionInterval 2000us
config partial_mesh.es_6.app[12].source.initialProductionOffset 12us
config partial_mesh.es_1.app[9].typename UdpSinkApp
config partial_mesh.es_1.app[9].display-name tsn-36
config partial_mesh.es_1.app[9].io.localPort 5036
config partial_mesh.es_6.app[13].typename UdpSourceApp
config partial_mesh.es_6.app[13].display-name tsn-37
config partial_mesh.es_6.app[13].io.destAddress "\"es_4\""
config partial_mesh.es_6.app[13].io.destPort 5037
config partial_mesh.es_6.app[13].source.packetNameFormat "\"%M-%m-%c\""
config partial_mesh.es_6.app[13].source.packetLength 50B
config partial_mesh.es_6.app[13].source.productionInterval 100us
config partial_mesh.es_6.app[13].source.initialProductionOffset 2us
config partial_mesh.es_4.app[12].typename UdpSinkApp
config partial_mesh.es_4.app[12].display-name tsn-37
config partial_mesh.es_4.app[12].io.localPort 5037
config partial_mesh.es_5.app[9].typename UdpSourceApp
config partial_mesh.es_5.app[9].display-name tsn-38
config partial_mesh.es_5.app[9].io.destAddress "\"es_2\""
config partial_mesh.es_5.app[9].io.destPort 5038
config partial_mesh.es_5.app[9].source.packetNameFormat "\"%M-%m-%c\""
config partial_mesh.es_5.app[9].source.packetLength 40B
config partial_mesh.es_5.app[9].source.productionInterval 1000us
config partial_mesh.es_5.app[9].source.initialProductionOffset 5us
config partial_mesh.es_2.app[13].typename UdpSinkApp
config partial_mesh.es_2.app[13].display-name tsn-38
config partial_mesh.es_2.app[13].io.localPort 5038
config partial_mesh.es_1.app[10].typename UdpSourceApp
config partial_mesh.es_1.app[10].display-name tsn-39
config partial_mesh.es_1.app[10].io.destAddress "\"es_5\""
config partial_mesh.es_1.app[10].io.destPort 5039
config partial_mesh.es_1.app[10].source.packetNameFormat "\"%M-%m-%c\""
config partial_mesh.es_1.app[10].source.packetLength 30B
config partial_mesh.es_1.app[10].source.productionInterval 2000us
config partial_mesh.es_1.app[10].source.initialProductionOffset 12us
config partial_mesh.es_5.app[10].typename UdpSinkApp
config partial_mesh.es_5.app[10].display-name tsn-39
config partial_mesh.es_5.app[10].io.localPort 5039
config partial_mesh.es_5.app[11].typename UdpSourceApp
config partial_mesh.es_5.app[11].display-name avb-40
config partial_mesh.es_5.app[11].io.destAddress "\"es_6\""
config partial_mesh.es_5.app[11].io.destPort 5040
config partial_mesh.es_5.app[11].source.packetNameFormat "\"%M-%m-%c\""
config partial_mesh.es_5.app[11].source.packetLength 1124B
config partial_mesh.es_5.app[11].source.productionInterval 125us
config partial_mesh.es_5.app[11].source.initialProductionOffset 40us
config partial_mesh.es_6.app[14].typename UdpSinkApp
config partial_mesh.es_6.app[14].display-name avb-40
config partial_mesh.es_6.app[14].io.localPort 5040
config partial_mesh.es_6.app[15].typename UdpSourceApp
config partial_mesh.es_6.app[15].display-name avb-41
config partial_mesh.es_6.app[15].io.destAddress "\"es_3\""
config partial_mesh.es_6.app[15].io.destPort 5041
config partial_mesh.es_6.app[15].source.packetNameFormat "\"%M-%m-%c\""
config partial_mesh.es_6.app[15].source.packetLength 1424B
config partial_mesh.es_6.app[15].source.productionInterval 125us
config partial_mesh.es_6.app[15].source.initialProductionOffset 41us
config partial_mesh.es_3.app[17].typename UdpSinkApp
config partial_mesh.es_3.app[17].display-name avb-41
config partial_mesh.es_3.app[17].io.localPort 5041
config partial_mesh.es_2.app[14].typename UdpSourceApp
config partial_mesh.es_2.app[14].display-name avb-42
config partial_mesh.es_2.app[14].io.destAddress "\"es_6\""
config partial_mesh.es_2.app[14].io.destPort 5042
config partial_mesh.es_2.app[14].source.packetNameFormat "\"%M-%m-%c\""
config partial_mesh.es_2.app[14].source.packetLength 924B
config partial_mesh.es_2.app[14].source.productionInterval 125us
config partial_mesh.es_2.app[14].source.initialProductionOffset 42us
config partial_mesh.es_6.app[16].typename UdpSinkApp
config partial_mesh.es_6.app[16].display-name avb-42
config partial_mesh.es_6.app[16].io.localPort 5042
config partial_mesh.es_3.app[18].typename UdpSourceApp
config partial_mesh.es_3.app[18].display-name avb-43
config partial_mesh.es_3.app[18].io.destAddress "\"es_1\""
config partial_mesh.es_3.app[18].io.destPort 5043
config partial_mesh.es_3.app[18].source.packetNameFormat "\"%M-%m-%c\""
config partial_mesh.es_3.app[18].source.packetLength 1024B
config partial_mesh.es_3.app[18].source.productionInterval 125us
config partial_mesh.es_3.app[18].source.initialProductionOffset 43us
config partial_mesh.es_1.app[11].typename UdpSinkApp
config partial_mesh.es_1.app[11].display-name avb-43
config partial_mesh.es_1.app[11].io.localPort 5043
config partial_mesh.es_5.app[12].typename UdpSourceApp
config partial_mesh.es_5.app[12].display-name avb-44
config partial_mesh.es_5.app[12].io.destAddress "\"es_4\""
config partial_mesh.es_5.app[12].io.destPort 5044
config partial_mesh.es_5.app[12].source.packetNameFormat "\"%M-%m-%c\""
config partial_mesh.es_5.app[12].source.packetLength 1024B
config partial_mesh.es_5.app[12].source.productionInterval 125us
config partial_mesh.es_5.app[12].source.initialProductionOffset 44us
config partial_mesh.es_4.app[13].typename UdpSinkApp
config partial_mesh.es_4.app[13].display-name avb-44
config partial_mesh.es_4.app[13].io.localPort 5044
config partial_mesh.es_4.app[14].typename UdpSourceApp
config partial_mesh.es_4.app[14].display-name avb-45
config partial_mesh.es_4.app[14].io.destAddress "\"es_5\""
config partial_mesh.es_4.app[14].io.destPort 5045
config partial_mesh.es_4.app[14].source.packetNameFormat "\"%M-%m-%c\""
config partial_mesh.es_4.app[14].source.packetLength 924B
config partial_mesh.es_4.app[14].source.productionInterval 125us
config partial_mesh.es_4.app[14].source.initialProductionOffset 45us
config partial_mesh.es_5.app[13].typename UdpSinkApp
config partial_mesh.es_5.app[13].display-name avb-45
config partial_mesh.es_5.app[13].io.localPort 5045
config partial_mesh.es_6.app[17].typename UdpSourceApp
config partial_mesh.es_6.app[17].display-name avb-46
config partial_mesh.es_6.app[17].io.destAddress "\"es_1\""
config partial_mesh.es_6.app[17].io.destPort 5046
config partial_mesh.es_6.app[17].source.packetNameFormat "\"%M-%m-%c\""
config partial_mesh.es_6.app[17].source.packetLength 1024B
config partial_mesh.es_6.app[17].source.productionInterval 125us
config partial_mesh.es_6.app[17].source.initialProductionOffset 46us
config partial_mesh.es_1.app[12].typename UdpSinkApp
config partial_mesh.es_1.app[12].display-name avb-46
config partial_mesh.es_1.app[12].io.localPort 5046
config partial_mesh.es_4.app[15].typename UdpSourceApp
config partial_mesh.es_4.app[15].display-name avb-47
config partial_mesh.es_4.app[15].io.destAddress "\"es_2\""
config partial_mesh.es_4.app[15].io.destPort 5047
config partial_mesh.es_4.app[15].source.packetNameFormat "\"%M-%m-%c\""
config partial_mesh.es_4.app[15].source.packetLength 1324B
config partial_mesh.es_4.app[15].source.productionInterval 125us
config partial_mesh.es_4.app[15].source.initialProductionOffset 47us
config partial_mesh.es_2.app[15].typename UdpSinkApp
config partial_mesh.es_2.app[15].display-name avb-47
config partial_mesh.es_2.app[15].io.localPort 5047
config partial_mesh.es_1.app[13].typename UdpSourceApp
config partial_mesh.es_1.app[13].display-name avb-48
config partial_mesh.es_1.app[13].io.destAddress "\"es_6\""
config partial_mesh.es_1.app[13].io.destPort 5048
config partial_mesh.es_1.app[13].source.packetNameFormat "\"%M-%m-%c\""
config partial_mesh.es_1.app[13].source.packetLength 1424B
config partial_mesh.es_1.app[13].source.productionInterval 125us
config partial_mesh.es_1.app[13].source.initialProductionOffset 48us
config partial_mesh.es_6.app[18].typename UdpSinkApp
config partial_mesh.es_6.app[18].display-name avb-48
config partial_mesh.es_6.app[18].io.localPort 5048
config partial_mesh.es_3.app[19].typename UdpSourceApp
config partial_mesh.es_3.app[19].display-name avb-49
config partial_mesh.es_3.app[19].io.destAddress "\"es_2\""
config partial_mesh.es_3.app[19].io.destPort 5049
config partial_mesh.es_3.app[19].source.packetNameFormat "\"%M-%m-%c\""
config partial_mesh.es_3.app[19].source.packetLength 924B
config partial_mesh.es_3.app[19].source.productionInterval 125us
config partial_mesh.es_3.app[19].source.initialProductionOffset 49us
config partial_mesh.es_2.app[16].typename UdpSinkApp
config partial_mesh.es_2.app[16].display-name avb-49
config partial_mesh.es_2.app[16].io.localPort 5049
config partial_mesh.es_2.app[17].typename UdpSourceApp
config partial_mesh.es_2.app[17].display-name avb-50
config partial_mesh.es_2.app[17].io.destAddress "\"es_1\""
config partial_mesh.es_2.app[17].io.destPort 5050
config partial_mesh.es_2.app[17].source.packetNameFormat "\"%M-%m-%c\""
config partial_mesh.es_2.app[17].source.packetLength 924B
config partial_mesh.es_2.app[17].source.productionInterval 125us
config partial_mesh.es_2.app[17].source.initialProductionOffset 50us
config partial_mesh.es_1.app[14].typename UdpSinkApp
config partial_mesh.es_1.app[14].display-name avb-50
config partial_mesh.es_1.app[14].io.localPort 5050
config partial_mesh.es_4.app[16].typename UdpSourceApp
config partial_mesh.es_4.app[16].display-name avb-51
config partial_mesh.es_4.app[16].io.destAddress "\"es_2\""
config partial_mesh.es_4.app[16].io.destPort 5051
config partial_mesh.es_4.app[16].source.packetNameFormat "\"%M-%m-%c\""
config partial_mesh.es_4.app[16].source.packetLength 1324B
config partial_mesh.es_4.app[16].source.productionInterval 125us
config partial_mesh.es_4.app[16].source.initialProductionOffset 51us
config partial_mesh.es_2.app[18].typename UdpSinkApp
config partial_mesh.es_2.app[18].display-name avb-51
config partial_mesh.es_2.app[18].io.localPort 5051
config partial_mesh.es_3.app[20].typename UdpSourceApp
config partial_mesh.es_3.app[20].display-name avb-52
config partial_mesh.es_3.app[20].io.destAddress "\"es_2\""
config partial_mesh.es_3.app[20].io.destPort 5052
config partial_mesh.es_3.app[20].source.packetNameFormat "\"%M-%m-%c\""
config partial_mesh.es_3.app[20].source.packetLength 1124B
config partial_mesh.es_3.app[20].source.productionInterval 125us
config partial_mesh.es_3.app[20].source.initialProductionOffset 52us
config partial_mesh.es_2.app[19].typename UdpSinkApp
config partial_mesh.es_2.app[19].display-name avb-52
config partial_mesh.es_2.app[19].io.localPort 5052
config partial_mesh.es_1.app[15].typename UdpSourceApp
config partial_mesh.es_1.app[15].display-name avb-53
config partial_mesh.es_1.app[15].io.destAddress "\"es_4\""
config partial_mesh.es_1.app[15].io.destPort 5053
config partial_mesh.es_1.app[15].source.packetNameFormat "\"%M-%m-%c\""
config partial_mesh.es_1.app[15].source.packetLength 1124B
config partial_mesh.es_1.app[15].source.productionInterval 125us
config partial_mesh.es_1.app[15].source.initialProductionOffset 53us
config partial_mesh.es_4.app[17].typename UdpSinkApp
config partial_mesh.es_4.app[17].display-name avb-53
config partial_mesh.es_4.app[17].io.localPort 5053
config partial_mesh.es_4.app[18].typename UdpSourceApp
config partial_mesh.es_4.app[18].display-name avb-54
config partial_mesh.es_4.app[18].io.destAddress "\"es_6\""
config partial_mesh.es_4.app[18].io.destPort 5054
config partial_mesh.es_4.app[18].source.packetNameFormat "\"%M-%m-%c\""
config partial_mesh.es_4.app[18].source.packetLength 1424B
config partial_mesh.es_4.app[18].source.productionInterval 125us
config partial_mesh.es_4.app[18].source.initialProductionOffset 54us
config partial_mesh.es_6.app[19].typename UdpSinkApp
config partial_mesh.es_6.app[19].display-name avb-54
config partial_mesh.es_6.app[19].io.localPort 5054
config partial_mesh.es_5.app[14].typename UdpSourceApp
config partial_mesh.es_5.app[14].display-name avb-55
config partial_mesh.es_5.app[14].io.destAddress "\"es_1\""
config partial_mesh.es_5.app[14].io.destPort 5055
config partial_mesh.es_5.app[14].source.packetNameFormat "\"%M-%m-%c\""
config partial_mesh.es_5.app[14].source.packetLength 1324B
config partial_mesh.es_5.app[14].source.productionInterval 125us
config partial_mesh.es_5.app[14].source.initialProductionOffset 55us
config partial_mesh.es_1.app[16].typename UdpSinkApp
config partial_mesh.es_1.app[16].display-name avb-55
config partial_mesh.es_1.app[16].io.localPort 5055
config partial_mesh.es_6.app[20].typename UdpSourceApp
config partial_mesh.es_6.app[20].display-name avb-56
config partial_mesh.es_6.app[20].io.destAddress "\"es_5\""
config partial_mesh.es_6.app[20].io.destPort 5056
config partial_mesh.es_6.app[20].source.packetNameFormat "\"%M-%m-%c\""
config partial_mesh.es_6.app[20].source.packetLength 1024B
config partial_mesh.es_6.app[20].source.productionInterval 125us
config partial_mesh.es_6.app[20].source.initialProductionOffset 56us
config partial_mesh.es_5.app[15].typename UdpSinkApp
config partial_mesh.es_5.app[15].display-name avb-56
config partial_mesh.es_5.app[15].io.localPort 5056
config partial_mesh.es_6.app[21].typename UdpSourceApp
config partial_mesh.es_6.app[21].display-name avb-57
config partial_mesh.es_6.app[21].io.destAddress "\"es_1\""
config partial_mesh.es_6.app[21].io.destPort 5057
config partial_mesh.es_6.app[21].source.packetNameFormat "\"%M-%m-%c\""
config partial_mesh.es_6.app[21].source.packetLength 1024B
config partial_mesh.es_6.app[21].source.productionInterval 125us
config partial_mesh.es_6.app[21].source.initialProductionOffset 57us
config partial_mesh.es_1.app[17].typename UdpSinkApp
config partial_mesh.es_1.app[17].display-name avb-57
config partial_mesh.es_1.app[17].io.localPort 5057
config partial_mesh.es_4.app[19].typename UdpSourceApp
config partial_mesh.es_4.app[19].display-name avb-58
config partial_mesh.es_4.app[19].io.destAddress "\"es_5\""
config partial_mesh.es_4.app[19].io.destPort 5058
config partial_mesh.es_4.app[19].source.packetNameFormat "\"%M-%m-%c\""
config partial_mesh.es_4.app[19].source.packetLength 1224B
config partial_mesh.es_4.app[19].source.productionInterval 125us
config partial_mesh.es_4.app[19].source.initialProductionOffset 58us
config partial_mesh.es_5.app[16].typename UdpSinkApp
config partial_mesh.es_5.app[16].display-name avb-58
config partial_mesh.es_5.app[16].io.localPort 5058
config partial_mesh.es_4.app[20].typename UdpSourceApp
config partial_mesh.es_4.app[20].display-name avb-59
config partial_mesh.es_4.app[20].io.destAddress "\"es_6\""
config partial_mesh.es_4.app[20].io.destPort 5059
config partial_mesh.es_4.app[20].source.packetNameFormat "\"%M-%m-%c\""
config partial_mesh.es_4.app[20].source.packetLength 924B
config partial_mesh.es_4.app[20].source.productionInterval 125us
config partial_mesh.es_4.app[20].source.initialProductionOffset 59us
config partial_mesh.es_6.app[22].typename UdpSinkApp
config partial_mesh.es_6.app[22].display-name avb-59
config partial_mesh.es_6.app[22].io.localPort 5059
config *.*.eth[*].macLayer.queue.classifier.mapping "[[0, 0, 0, 0, 0, 0, 0, 0],\n                                                [0, 0, 0, 0, 0, 1, 1, 1],\n                                                [0, 0, 0, 1, 1, 2, 2, 2],\n                                                [0, 0, 0, 1, 1, 2, 3, 3],\n                                                [0, 1, 1, 2, 2, 3, 4, 4],\n                                                [0, 1, 1, 2, 2, 3, 4, 5],\n                                                [0, 1, 2, 3, 3, 4, 5, 6],\n                                                [0, 1, 2, 3, 4, 5, 6, 7]]"
config *.macForwardingTableConfigurator.typename ""
config *.*.hasStreamRedundancy true
config *.*.bridging.streamRelay.typename StreamRelayLayer
config *.*.bridging.streamCoder.typename StreamCoderLayer
config *.streamRedundancyConfigurator.typename r438StreamRedundancyConfigurator
config *.streamRedundancyConfigurator.configuration "[\n\t{pcp: 0, name: \"tsn-0\", packetFilter: \"*-tsn-0-*\", source: \"es_6\", destination: \"es_2\", trees: [[[\"es_6\", \"s_12\", \"s_11\", \"s_7\", \"s_3\", \"s_4\", \"es_2\"]], [[\"es_6\", \"s_12\", \"s_8\", \"s_4\", \"es_2\"]]]},\n\t{pcp: 0, name: \"tsn-1\", packetFilter: \"*-tsn-1-*\", source: \"es_5\", destination: \"es_6\", trees: [[[\"es_5\", \"s_9\", \"s_5\", \"s_6\", \"s_7\", \"s_8\", \"s_12\", \"es_6\"]], [[\"es_5\", \"s_9\", \"s_10\", \"s_11\", \"s_12\", \"es_6\"]]]},\n\t{pcp: 0, name: \"tsn-2\", packetFilter: \"*-tsn-2-*\", source: \"es_4\", destination: \"es_3\", trees: [[[\"es_4\", \"s_8\", \"s_7\", \"s_6\", \"s_5\", \"es_3\"]], [[\"es_4\", \"s_8\", \"s_12\", \"s_11\", \"s_10\", \"s_9\", \"s_5\", \"es_3\"]]]},\n\t{pcp: 1, name: \"tsn-3\", packetFilter: \"*-tsn-3-*\", source: \"es_4\", destination: \"es_3\", trees: [[[\"es_4\", \"s_8\", \"s_7\", \"s_6\", \"s_5\", \"es_3\"]], [[\"es_4\", \"s_8\", \"s_12\", \"s_11\", \"s_10\", \"s_9\", \"s_5\", \"es_3\"]]]},\n\t{pcp: 1, name: \"tsn-4\", packetFilter: \"*-tsn-4-*\", source: \"es_1\", destination: \"es_4\", trees: [[[\"es_1\", \"s_1\", \"s_2\", \"s_3\", \"s_4\", \"s_8\", \"es_4\"]], [[\"es_1\", \"s_1\", \"s_5\", \"s_6\", \"s_10\", \"s_11\", \"s_12\", \"s_8\", \"es_4\"]]]},\n\t{pcp: 0, name: \"tsn-5\", packetFilter: \"*-tsn-5-*\", source: \"es_3\", destination: \"es_6\", trees: [[[\"es_3\", \"s_5\", \"s_6\", \"s_7\", \"s_8\", \"s_12\", \"es_6\"]], [[\"es_3\", \"s_5\", \"s_9\", \"s_10\", \"s_11\", \"s_12\", \"es_6\"]]]},\n\t{pcp: 1, name: \"tsn-6\", packetFilter: \"*-tsn-6-*\", source: \"es_1\", destination: \"es_3\", trees: [[[\"es_1\", \"s_1\", \"s_2\", \"s_6\", \"s_10\", \"s_9\", \"s_5\", \"es_3\"]], [[\"es_1\", \"s_1\", \"s_5\", \"es_3\"]]]},\n\t{pcp: 0, name: \"tsn-7\", packetFilter: \"*-tsn-7-*\", source: \"es_3\", destination: \"es_2\", trees: [[[\"es_3\", \"s_5\", \"s_1\", \"s_2\", \"s_3\", \"s_4\", \"es_2\"]], [[\"es_3\", \"s_5\", \"s_6\", \"s_7\", \"s_8\", \"s_4\", \"es_2\"]]]},\n\t{pcp: 0, name: \"tsn-8\", packetFilter: \"*-tsn-8-*\", source: \"es_2\", destination: \"es_5\", trees: [[[\"es_2\", \"s_4\", \"s_3\", \"s_2\", \"s_6\", \"s_5\", \"s_9\", \"es_5\"]], [[\"es_2\", \"s_4\", \"s_8\", \"s_12\", \"s_11\", \"s_10\", \"s_9\", \"es_5\"]]]},\n\t{pcp: 0, name: \"tsn-9\", packetFilter: \"*-tsn-9-*\", source: \"es_3\", destination: \"es_6\", trees: [[[\"es_3\", \"s_5\", \"s_1\", \"s_2\", \"s_3\", \"s_7\", \"s_8\", \"s_12\", \"es_6\"]], [[\"es_3\", \"s_5\", \"s_9\", \"s_10\", \"s_11\", \"s_12\", \"es_6\"]]]},\n\t{pcp: 1, name: \"tsn-10\", packetFilter: \"*-tsn-10-*\", source: \"es_4\", destination: \"es_2\", trees: [[[\"es_4\", \"s_8\", \"s_7\", \"s_3\", \"s_4\", \"es_2\"]], [[\"es_4\", \"s_8\", \"s_4\", \"es_2\"]]]},\n\t{pcp: 0, name: \"tsn-11\", packetFilter: \"*-tsn-11-*\", source: \"es_2\", destination: \"es_1\", trees: [[[\"es_2\", \"s_4\", \"s_3\", \"s_2\", \"s_1\", \"es_1\"]], [[\"es_2\", \"s_4\", \"s_8\", \"s_12\", \"s_11\", \"s_10\", \"s_9\", \"s_5\", \"s_1\", \"es_1\"]]]},\n\t{pcp: 0, name: \"tsn-12\", packetFilter: \"*-tsn-12-*\", source: \"es_6\", destination: \"es_4\", trees: [[[\"es_6\", \"s_12\", \"s_11\", \"s_7\", \"s_8\", \"es_4\"]], [[\"es_6\", \"s_12\", \"s_8\", \"es_4\"]]]},\n\t{pcp: 0, name: \"tsn-13\", packetFilter: \"*-tsn-13-*\", source: \"es_2\", destination: \"es_1\", trees: [[[\"es_2\", \"s_4\", \"s_3\", \"s_2\", \"s_1\", \"es_1\"]], [[\"es_2\", \"s_4\", \"s_8\", \"s_12\", \"s_11\", \"s_10\", \"s_9\", \"s_5\", \"s_1\", \"es_1\"]]]},\n\t{pcp: 0, name: \"tsn-14\", packetFilter: \"*-tsn-14-*\", source: \"es_3\", destination: \"es_2\", trees: [[[\"es_3\", \"s_5\", \"s_6\", \"s_2\", \"s_3\", \"s_4\", \"es_2\"]], [[\"es_3\", \"s_5\", \"s_9\", \"s_10\", \"s_11\", \"s_12\", \"s_8\", \"s_4\", \"es_2\"]]]},\n\t{pcp: 0, name: \"tsn-15\", packetFilter: \"*-tsn-15-*\", source: \"es_3\", destination: \"es_5\", trees: [[[\"es_3\", \"s_5\", \"s_1\", \"s_2\", \"s_6\", \"s_10\", \"s_9\", \"es_5\"]], [[\"es_3\", \"s_5\", \"s_9\", \"es_5\"]]]},\n\t{pcp: 0, name: \"tsn-16\", packetFilter: \"*-tsn-16-*\", source: \"es_6\", destination: \"es_2\", trees: [[[\"es_6\", \"s_12\", \"s_11\", \"s_7\", \"s_3\", \"s_4\", \"es_2\"]], [[\"es_6\", \"s_12\", \"s_8\", \"s_4\", \"es_2\"]]]},\n\t{pcp: 0, name: \"tsn-17\", packetFilter: \"*-tsn-17-*\", source: \"es_1\", destination: \"es_3\", trees: [[[\"es_1\", \"s_1\", \"s_2\", \"s_6\", \"s_5\", \"es_3\"]], [[\"es_1\", \"s_1\", \"s_5\", \"es_3\"]]]},\n\t{pcp: 0, name: \"tsn-18\", packetFilter: \"*-tsn-18-*\", source: \"es_3\", destination: \"es_4\", trees: [[[\"es_3\", \"s_5\", \"s_6\", \"s_7\", \"s_8\", \"es_4\"]], [[\"es_3\", \"s_5\", \"s_9\", \"s_10\", \"s_11\", \"s_12\", \"s_8\", \"es_4\"]]]},\n\t{pcp: 0, name: \"tsn-19\", packetFilter: \"*-tsn-19-*\", source: \"es_1\", destination: \"es_5\", trees: [[[\"es_1\", \"s_1\", \"s_2\", \"s_6\", \"s_10\", \"s_9\", \"es_5\"]], [[\"es_1\", \"s_1\", \"s_5\", \"s_9\", \"es_5\"]]]},\n\t{pcp: 0, name: \"tsn-20\", packetFilter: \"*-tsn-20-*\", source: \"es_6\", destination: \"es_5\", trees: [[[\"es_6\", \"s_12\", \"s_11\", \"s_10\", \"s_9\", \"es_5\"]], [[\"es_6\", \"s_12\", \"s_8\", \"s_4\", \"s_3\", \"s_2\", \"s_6\", \"s_5\", \"s_9\", \"es_5\"]]]},\n\t{pcp: 0, name: \"tsn-21\", packetFilter: \"*-tsn-21-*\", source: \"es_1\", destination: \"es_6\", trees: [[[\"es_1\", \"s_1\", \"s_2\", \"s_3\", \"s_4\", \"s_8\", \"s_12\", \"es_6\"]], [[\"es_1\", \"s_1\", \"s_5\", \"s_9\", \"s_10\", \"s_11\", \"s_12\", \"es_6\"]]]},\n\t{pcp: 0, name: \"tsn-22\", packetFilter: \"*-tsn-22-*\", source: \"es_5\", destination: \"es_3\", trees: [[[\"es_5\", \"s_9\", \"s_5\", \"es_3\"]], [[\"es_5\", \"s_9\", \"s_10\", \"s_6\", \"s_5\", \"es_3\"]]]},\n\t{pcp: 0, name: \"tsn-23\", packetFilter: \"*-tsn-23-*\", source: \"es_2\", destination: \"es_4\", trees: [[[\"es_2\", \"s_4\", \"s_3\", \"s_7\", \"s_8\", \"es_4\"]], [[\"es_2\", \"s_4\", \"s_8\", \"es_4\"]]]},\n\t{pcp: 1, name: \"tsn-24\", packetFilter: \"*-tsn-24-*\", source: \"es_6\", destination: \"es_3\", trees: [[[\"es_6\", \"s_12\", \"s_11\", \"s_10\", \"s_9\", \"s_5\", \"es_3\"]], [[\"es_6\", \"s_12\", \"s_8\", \"s_7\", \"s_6\", \"s_5\", \"es_3\"]]]},\n\t{pcp: 0, name: \"tsn-25\", packetFilter: \"*-tsn-25-*\", source: \"es_4\", destination: \"es_3\", trees: [[[\"es_4\", \"s_8\", \"s_7\", \"s_6\", \"s_5\", \"es_3\"]], [[\"es_4\", \"s_8\", \"s_12\", \"s_11\", \"s_10\", \"s_9\", \"s_5\", \"es_3\"]]]},\n\t{pcp: 0, name: \"tsn-26\", packetFilter: \"*-tsn-26-*\", source: \"es_2\", destination: \"es_3\", trees: [[[\"es_2\", \"s_4\", \"s_3\", \"s_2\", \"s_6\", \"s_5\", \"es_3\"]], [[\"es_2\", \"s_4\", \"s_8\", \"s_7\", \"s_11\", \"s_10\", \"s_9\", \"s_5\", \"es_3\"]]]},\n\t{pcp: 0, name: \"tsn-27\", packetFilter: \"*-tsn-27-*\", source: \"es_4\", destination: \"es_6\", trees: [[[\"es_4\", \"s_8\", \"s_7\", \"s_11\", \"s_12\", \"es_6\"]], [[\"es_4\", \"s_8\", \"s_12\", \"es_6\"]]]},\n\t{pcp: 0, name: \"tsn-28\", packetFilter: \"*-tsn-28-*\", source: \"es_1\", destination: \"es_2\", trees: [[[\"es_1\", \"s_1\", \"s_2\", \"s_3\", \"s_4\", \"es_2\"]], [[\"es_1\", \"s_1\", \"s_5\", \"s_6\", \"s_7\", \"s_8\", \"s_4\", \"es_2\"]]]},\n\t{pcp: 0, name: \"tsn-29\", packetFilter: \"*-tsn-29-*\", source: \"es_1\", destination: \"es_3\", trees: [[[\"es_1\", \"s_1\", \"s_2\", \"s_6\", \"s_5\", \"es_3\"]], [[\"es_1\", \"s_1\", \"s_5\", \"es_3\"]]]},\n\t{pcp: 0, name: \"tsn-30\", packetFilter: \"*-tsn-30-*\", source: \"es_6\", destination: \"es_4\", trees: [[[\"es_6\", \"s_12\", \"s_11\", \"s_7\", \"s_8\", \"es_4\"]], [[\"es_6\", \"s_12\", \"s_8\", \"es_4\"]]]},\n\t{pcp: 0, name: \"tsn-31\", packetFilter: \"*-tsn-31-*\", source: \"es_4\", destination: \"es_2\", trees: [[[\"es_4\", \"s_8\", \"s_7\", \"s_3\", \"s_4\", \"es_2\"]], [[\"es_4\", \"s_8\", \"s_4\", \"es_2\"]]]},\n\t{pcp: 0, name: \"tsn-32\", packetFilter: \"*-tsn-32-*\", source: \"es_6\", destination: \"es_5\", trees: [[[\"es_6\", \"s_12\", \"s_11\", \"s_10\", \"s_9\", \"es_5\"]], [[\"es_6\", \"s_12\", \"s_8\", \"s_7\", \"s_6\", \"s_5\", \"s_9\", \"es_5\"]]]},\n\t{pcp: 1, name: \"tsn-33\", packetFilter: \"*-tsn-33-*\", source: \"es_5\", destination: \"es_4\", trees: [[[\"es_5\", \"s_9\", \"s_5\", \"s_6\", \"s_7\", \"s_8\", \"es_4\"]], [[\"es_5\", \"s_9\", \"s_10\", \"s_11\", \"s_12\", \"s_8\", \"es_4\"]]]},\n\t{pcp: 0, name: \"tsn-34\", packetFilter: \"*-tsn-34-*\", source: \"es_5\", destination: \"es_3\", trees: [[[\"es_5\", \"s_9\", \"s_5\", \"es_3\"]], [[\"es_5\", \"s_9\", \"s_10\", \"s_6\", \"s_5\", \"es_3\"]]]},\n\t{pcp: 0, name: \"tsn-35\", packetFilter: \"*-tsn-35-*\", source: \"es_3\", destination: \"es_2\", trees: [[[\"es_3\", \"s_5\", \"s_1\", \"s_2\", \"s_3\", \"s_4\", \"es_2\"]], [[\"es_3\", \"s_5\", \"s_9\", \"s_10\", \"s_6\", \"s_7\", \"s_8\", \"s_4\", \"es_2\"]]]},\n\t{pcp: 0, name: \"tsn-36\", packetFilter: \"*-tsn-36-*\", source: \"es_6\", destination: \"es_1\", trees: [[[\"es_6\", \"s_12\", \"s_11\", \"s_10\", \"s_9\", \"s_5\", \"s_1\", \"es_1\"]], [[\"es_6\", \"s_12\", \"s_8\", \"s_7\", \"s_3\", \"s_2\", \"s_1\", \"es_1\"]]]},\n\t{pcp: 0, name: \"tsn-37\", packetFilter: \"*-tsn-37-*\", source: \"es_6\", destination: \"es_4\", trees: [[[\"es_6\", \"s_12\", \"s_11\", \"s_7\", \"s_8\", \"es_4\"]], [[\"es_6\", \"s_12\", \"s_8\", \"es_4\"]]]},\n\t{pcp: 1, name: \"tsn-38\", packetFilter: \"*-tsn-38-*\", source: \"es_5\", destination: \"es_2\", trees: [[[\"es_5\", \"s_9\", \"s_5\", \"s_1\", \"s_2\", \"s_3\", \"s_4\", \"es_2\"]], [[\"es_5\", \"s_9\", \"s_10\", \"s_11\", \"s_12\", \"s_8\", \"s_4\", \"es_2\"]]]},\n\t{pcp: 1, name: \"tsn-39\", packetFilter: \"*-tsn-39-*\", source: \"es_1\", destination: \"es_5\", trees: [[[\"es_1\", \"s_1\", \"s_2\", \"s_6\", \"s_10\", \"s_9\", \"es_5\"]], [[\"es_1\", \"s_1\", \"s_5\", \"s_9\", \"es_5\"]]]},\n\t{pcp: 7, name: \"avb-40\", packetFilter: \"*-avb-40-*\", source: \"es_5\", destination: \"es_6\", trees: [[[\"es_5\", \"s_9\", \"s_5\", \"s_6\", \"s_7\", \"s_8\", \"s_12\", \"es_6\"]], [[\"es_5\", \"s_9\", \"s_10\", \"s_11\", \"s_12\", \"es_6\"]]]},\n\t{pcp: 7, name: \"avb-41\", packetFilter: \"*-avb-41-*\", source: \"es_6\", destination: \"es_3\", trees: [[[\"es_6\", \"s_12\", \"s_11\", \"s_10\", \"s_9\", \"s_5\", \"es_3\"]], [[\"es_6\", \"s_12\", \"s_8\", \"s_7\", \"s_6\", \"s_5\", \"es_3\"]]]},\n\t{pcp: 7, name: \"avb-42\", packetFilter: \"*-avb-42-*\", source: \"es_2\", destination: \"es_6\", trees: [[[\"es_2\", \"s_4\", \"s_3\", \"s_7\", \"s_11\", \"s_12\", \"es_6\"]], [[\"es_2\", \"s_4\", \"s_8\", \"s_12\", \"es_6\"]]]},\n\t{pcp: 7, name: \"avb-43\", packetFilter: \"*-avb-43-*\", source: \"es_3\", destination: \"es_1\", trees: [[[\"es_3\", \"s_5\", \"s_1\", \"es_1\"]], [[\"es_3\", \"s_5\", \"s_6\", \"s_2\", \"s_1\", \"es_1\"]]]},\n\t{pcp: 7, name: \"avb-44\", packetFilter: \"*-avb-44-*\", source: \"es_5\", destination: \"es_4\", trees: [[[\"es_5\", \"s_9\", \"s_5\", \"s_6\", \"s_7\", \"s_8\", \"es_4\"]], [[\"es_5\", \"s_9\", \"s_10\", \"s_11\", \"s_12\", \"s_8\", \"es_4\"]]]},\n\t{pcp: 7, name: \"avb-45\", packetFilter: \"*-avb-45-*\", source: \"es_4\", destination: \"es_5\", trees: [[[\"es_4\", \"s_8\", \"s_7\", \"s_6\", \"s_5\", \"s_9\", \"es_5\"]], [[\"es_4\", \"s_8\", \"s_12\", \"s_11\", \"s_10\", \"s_9\", \"es_5\"]]]},\n\t{pcp: 7, name: \"avb-46\", packetFilter: \"*-avb-46-*\", source: \"es_6\", destination: \"es_1\", trees: [[[\"es_6\", \"s_12\", \"s_11\", \"s_10\", \"s_6\", \"s_5\", \"s_1\", \"es_1\"]], [[\"es_6\", \"s_12\", \"s_8\", \"s_4\", \"s_3\", \"s_2\", \"s_1\", \"es_1\"]]]},\n\t{pcp: 7, name: \"avb-47\", packetFilter: \"*-avb-47-*\", source: \"es_4\", destination: \"es_2\", trees: [[[\"es_4\", \"s_8\", \"s_7\", \"s_3\", \"s_4\", \"es_2\"]], [[\"es_4\", \"s_8\", \"s_4\", \"es_2\"]]]},\n\t{pcp: 7, name: \"avb-48\", packetFilter: \"*-avb-48-*\", source: \"es_1\", destination: \"es_6\", trees: [[[\"es_1\", \"s_1\", \"s_2\", \"s_3\", \"s_4\", \"s_8\", \"s_12\", \"es_6\"]], [[\"es_1\", \"s_1\", \"s_5\", \"s_9\", \"s_10\", \"s_11\", \"s_12\", \"es_6\"]]]},\n\t{pcp: 7, name: \"avb-49\", packetFilter: \"*-avb-49-*\", source: \"es_3\", destination: \"es_2\", trees: [[[\"es_3\", \"s_5\", \"s_1\", \"s_2\", \"s_3\", \"s_4\", \"es_2\"]], [[\"es_3\", \"s_5\", \"s_6\", \"s_7\", \"s_8\", \"s_4\", \"es_2\"]]]},\n\t{pcp: 7, name: \"avb-50\", packetFilter: \"*-avb-50-*\", source: \"es_2\", destination: \"es_1\", trees: [[[\"es_2\", \"s_4\", \"s_3\", \"s_2\", \"s_1\", \"es_1\"]], [[\"es_2\", \"s_4\", \"s_8\", \"s_7\", \"s_6\", \"s_5\", \"s_1\", \"es_1\"]]]},\n\t{pcp: 7, name: \"avb-51\", packetFilter: \"*-avb-51-*\", source: \"es_4\", destination: \"es_2\", trees: [[[\"es_4\", \"s_8\", \"s_7\", \"s_3\", \"s_4\", \"es_2\"]], [[\"es_4\", \"s_8\", \"s_4\", \"es_2\"]]]},\n\t{pcp: 7, name: \"avb-52\", packetFilter: \"*-avb-52-*\", source: \"es_3\", destination: \"es_2\", trees: [[[\"es_3\", \"s_5\", \"s_1\", \"s_2\", \"s_3\", \"s_4\", \"es_2\"]], [[\"es_3\", \"s_5\", \"s_6\", \"s_7\", \"s_8\", \"s_4\", \"es_2\"]]]},\n\t{pcp: 7, name: \"avb-53\", packetFilter: \"*-avb-53-*\", source: \"es_1\", destination: \"es_4\", trees: [[[\"es_1\", \"s_1\", \"s_2\", \"s_3\", \"s_4\", \"s_8\", \"es_4\"]], [[\"es_1\", \"s_1\", \"s_5\", \"s_6\", \"s_7\", \"s_8\", \"es_4\"]]]},\n\t{pcp: 7, name: \"avb-54\", packetFilter: \"*-avb-54-*\", source: \"es_4\", destination: \"es_6\", trees: [[[\"es_4\", \"s_8\", \"s_7\", \"s_11\", \"s_12\", \"es_6\"]], [[\"es_4\", \"s_8\", \"s_12\", \"es_6\"]]]},\n\t{pcp: 7, name: \"avb-55\", packetFilter: \"*-avb-55-*\", source: \"es_5\", destination: \"es_1\", trees: [[[\"es_5\", \"s_9\", \"s_5\", \"s_1\", \"es_1\"]], [[\"es_5\", \"s_9\", \"s_10\", \"s_6\", \"s_2\", \"s_1\", \"es_1\"]]]},\n\t{pcp: 7, name: \"avb-56\", packetFilter: \"*-avb-56-*\", source: \"es_6\", destination: \"es_5\", trees: [[[\"es_6\", \"s_12\", \"s_11\", \"s_10\", \"s_9\", \"es_5\"]], [[\"es_6\", \"s_12\", \"s_8\", \"s_7\", \"s_6\", \"s_5\", \"s_9\", \"es_5\"]]]},\n\t{pcp: 7, name: \"avb-57\", packetFilter: \"*-avb-57-*\", source: \"es_6\", destination: \"es_1\", trees: [[[\"es_6\", \"s_12\", \"s_11\", \"s_7\", \"s_6\", \"s_5\", \"s_1\", \"es_1\"]], [[\"es_6\", \"s_12\", \"s_8\", \"s_4\", \"s_3\", \"s_2\", \"s_1\", \"es_1\"]]]},\n\t{pcp: 7, name: \"avb-58\", packetFilter: \"*-avb-58-*\", source: \"es_4\", destination: \"es_5\", trees: [[[\"es_4\", \"s_8\", \"s_4\", \"s_3\", \"s_2\", \"s_1\", \"s_5\", \"s_9\", \"es_5\"]], [[\"es_4\", \"s_8\", \"s_12\", \"s_11\", \"s_10\", \"s_9\", \"es_5\"]]]},\n\t{pcp: 7, name: \"avb-59\", packetFilter: \"*-avb-59-*\", source: \"es_4\", destination: \"es_6\", trees: [[[\"es_4\", \"s_8\", \"s_7\", \"s_11\", \"s_12\", \"es_6\"]], [[\"es_4\", \"s_8\", \"s_12\", \"es_6\"]]]}]"
config *.gateScheduleConfigurator.typename r438Configurator
config *.gateScheduleConfigurator.gateCycleDuration 2000us

vector 0 partial_mesh.es_1.ethg$o[0].channel busy:vector ETV
attr interpolationmode sample-hold
attr recordingmode vector
attr source channelBusy
vector 1 partial_mesh.s_1.ethg$o[0].channel busy:vector ETV
attr interpolationmode sample-hold
attr recordingmode vector
attr source channelBusy
vector 2 partial_mesh.s_1.ethg$o[1].channel busy:vector ETV
attr interpolationmode sample-hold
attr recordingmode vector
attr source channelBusy
vector 3 partial_mesh.s_2.ethg$o[0].channel busy:vector ETV
attr interpolationmode sample-hold
attr recordingmode vector
attr source channelBusy
vector 4 partial_mesh.s_2.ethg$o[1].channel busy:vector ETV
attr interpolationmode sample-hold
attr recordingmode vector
attr source channelBusy
vector 5 partial_mesh.s_3.ethg$o[0].channel busy:vector ETV
attr interpolationmode sample-hold
attr recordingmode vector
attr source channelBusy
vector 6 partial_mesh.s_3.ethg$o[1].channel busy:vector ETV
attr interpolationmode sample-hold
attr recordingmode vector
attr source channelBusy
vector 7 partial_mesh.s_4.ethg$o[0].channel busy:vector ETV
attr interpolationmode sample-hold
attr recordingmode vector
attr source channelBusy
vector 8 partial_mesh.s_4.ethg$o[1].channel busy:vector ETV
attr interpolationmode sample-hold
attr recordingmode vector
attr source channelBusy
vector 9 partial_mesh.es_2.ethg$o[0].channel busy:vector ETV
attr interpolationmode sample-hold
attr recordingmode vector
attr source channelBusy
vector 10 partial_mesh.es_3.ethg$o[0].channel busy:vector ETV
attr interpolationmode sample-hold
attr recordingmode vector
attr source channelBusy
vector 11 partial_mesh.s_5.ethg$o[0].channel busy:vector ETV
attr interpolationmode sample-hold
attr recordingmode vector
attr source channelBusy
vector 12 partial_mesh.s_5.ethg$o[1].channel busy:vector ETV
attr interpolationmode sample-hold
attr recordingmode vector
attr source channelBusy
vector 13 partial_mesh.s_6.ethg$o[0].channel busy:vector ETV
attr interpolationmode sample-hold
attr recordingmode vector
attr source channelBusy
vector 14 partial_mesh.s_6.ethg$o[1].channel busy:vector ETV
attr interpolationmode sample-hold
attr recordingmode vector
attr source channelBusy
vector 15 partial_mesh.s_7.ethg$o[0].channel busy:vector ETV
attr interpolationmode sample-hold
attr recordingmode vector
attr source channelBusy
vector 16 partial_mesh.s_7.ethg$o[1].channel busy:vector ETV
attr interpolationmode sample-hold
attr recordingmode vector
attr source channelBusy
vector 17 partial_mesh.s_8.ethg$o[0].channel busy:vector ETV
attr interpolationmode sample-hold
attr recordingmode vector
attr source channelBusy
vector 18 partial_mesh.s_8.ethg$o[1].channel busy:vector ETV
attr interpolationmode sample-hold
attr recordingmode vector
attr source channelBusy
vector 19 partial_mesh.es_4.ethg$o[0].channel busy:vector ETV
attr interpolationmode sample-hold
attr recordingmode vector
attr source channelBusy
vector 20 partial_mesh.es_5.ethg$o[0].channel busy:vector ETV
attr interpolationmode sample-hold
attr recordingmode vector
attr source channelBusy
vector 21 partial_mesh.s_9.ethg$o[0].channel busy:vector ETV
attr interpolationmode sample-hold
attr recordingmode vector
attr source channelBusy
vector 22 partial_mesh.s_9.ethg$o[1].channel busy:vector ETV
attr interpolationmode sample-hold
attr recordingmode vector
attr source channelBusy
vector 23 partial_mesh.s_10.ethg$o[0].channel busy:vector ETV
attr interpolationmode sample-hold
attr recordingmode vector
attr source channelBusy
vector 24 partial_mesh.s_10.ethg$o[1].channel busy:vector ETV
attr interpolationmode sample-hold
attr recordingmode vector
attr source channelBusy
vector 25 partial_mesh.s_11.ethg$o[0].channel busy:vector ETV
attr interpolationmode sample-hold
attr recordingmode vector
attr source channelBusy
vector 26 partial_mesh.s_11.ethg$o[1].channel busy:vector ETV
attr interpolationmode sample-hold
attr recordingmode vector
attr source channelBusy
vector 27 partial_mesh.s_12.ethg$o[0].channel busy:vector ETV
attr interpolationmode sample-hold
attr recordingmode vector
attr source channelBusy
vector 28 partial_mesh.s_12.ethg$o[1].channel busy:vector ETV
attr interpolationmode sample-hold
attr recordingmode vector
attr source channelBusy
vector 29 partial_mesh.es_6.ethg$o[0].channel busy:vector ETV
attr interpolationmode sample-hold
attr recordingmode vector
attr source channelBusy
vector 30 partial_mesh.s_1.ethg$o[2].channel busy:vector ETV
attr interpolationmode sample-hold
attr recordingmode vector
attr source channelBusy
vector 31 partial_mesh.s_5.ethg$o[2].channel busy:vector ETV
attr interpolationmode sample-hold
attr recordingmode vector
attr source channelBusy
vector 32 partial_mesh.s_5.ethg$o[3].channel busy:vector ETV
attr interpolationmode sample-hold
attr recordingmode vector
attr source channelBusy
vector 33 partial_mesh.s_9.ethg$o[2].channel busy:vector ETV
attr interpolationmode sample-hold
attr recordingmode vector
attr source channelBusy
vector 34 partial_mesh.s_2.ethg$o[2].channel busy:vector ETV
attr interpolationmode sample-hold
attr recordingmode vector
attr source channelBusy
vector 35 partial_mesh.s_6.ethg$o[2].channel busy:vector ETV
attr interpolationmode sample-hold
attr recordingmode vector
attr source channelBusy
vector 36 partial_mesh.s_6.ethg$o[3].channel busy:vector ETV
attr interpolationmode sample-hold
attr recordingmode vector
attr source channelBusy
vector 37 partial_mesh.s_10.ethg$o[2].channel busy:vector ETV
attr interpolationmode sample-hold
attr recordingmode vector
attr source channelBusy
vector 38 partial_mesh.s_3.ethg$o[2].channel busy:vector ETV
attr interpolationmode sample-hold
attr recordingmode vector
attr source channelBusy
vector 39 partial_mesh.s_7.ethg$o[2].channel busy:vector ETV
attr interpolationmode sample-hold
attr recordingmode vector
attr source channelBusy
vector 40 partial_mesh.s_7.ethg$o[3].channel busy:vector ETV
attr interpolationmode sample-hold
attr recordingmode vector
attr source channelBusy
vector 41 partial_mesh.s_11.ethg$o[2].channel busy:vector ETV
attr interpolationmode sample-hold
attr recordingmode vector
attr source channelBusy
vector 42 partial_mesh.s_4.ethg$o[2].channel busy:vector ETV
attr interpolationmode sample-hold
attr recordingmode vector
attr source channelBusy
vector 43 partial_mesh.s_8.ethg$o[2].channel busy:vector ETV
attr interpolationmode sample-hold
attr recordingmode vector
attr source channelBusy
vector 44 partial_mesh.s_8.ethg$o[3].channel busy:vector ETV
attr interpolationmode sample-hold
attr recordingmode vector
attr source channelBusy
vector 45 partial_mesh.s_12.ethg$o[2].channel busy:vector ETV
attr interpolationmode sample-hold
attr recordingmode vector
attr source channelBusy
vector 46 partial_mesh.es_1.eth[0].phyLayer.transmitter transmitting:vector ETV
attr interpolationmode sample-hold
attr recordingmode vector
attr source "count(transmissionStarted) - count(transmissionEnded)"
attr title "transmitting state"
attr type int
vector 47 partial_mesh.es_1.udp passedUpPk:vector(count) ETV
attr interpolationmode none
attr recordingmode vector(count)
attr source packetSentToUpper
attr title "packets passed up, count"
vector 48 partial_mesh.es_1.udp droppedPkWrongPort:vector(count) ETV
attr interpolationmode none
attr recordingmode vector(count)
attr source packetDropReasonIsNoPortFound(packetDropped)
attr title "packets dropped (wrong port), count"
vector 49 partial_mesh.es_1.udp droppedPkBadChecksum:vector(count) ETV
attr interpolationmode none
attr recordingmode vector(count)
attr source packetDropReasonIsIncorrectlyReceived(packetDropped)
attr title "packets dropped (checksum error), count"
vector 50 partial_mesh.es_2.eth[0].phyLayer.transmitter transmitting:vector ETV
attr interpolationmode sample-hold
attr recordingmode vector
attr source "count(transmissionStarted) - count(transmissionEnded)"
attr title "transmitting state"
attr type int
vector 51 partial_mesh.es_2.udp passedUpPk:vector(count) ETV
attr interpolationmode none
attr recordingmode vector(count)
attr source packetSentToUpper
attr title "packets passed up, count"
vector 52 partial_mesh.es_2.udp droppedPkWrongPort:vector(count) ETV
attr interpolationmode none
attr recordingmode vector(count)
attr source packetDropReasonIsNoPortFound(packetDropped)
attr title "packets dropped (wrong port), count"
vector 53 partial_mesh.es_2.udp droppedPkBadChecksum:vector(count) ETV
attr interpolationmode none
attr recordingmode vector(count)
attr source packetDropReasonIsIncorrectlyReceived(packetDropped)
attr title "packets dropped (checksum error), count"
vector 54 partial_mesh.es_3.eth[0].phyLayer.transmitter transmitting:vector ETV
attr interpolationmode sample-hold
attr recordingmode vector
attr source "count(transmissionStarted) - count(transmissionEnded)"
attr title "transmitting state"
attr type int
vector 55 partial_mesh.es_3.udp passedUpPk:vector(count) ETV
attr interpolationmode none
attr recordingmode vector(count)
attr source packetSentToUpper
attr title "packets passed up, count"
vector 56 partial_mesh.es_3.udp droppedPkWrongPort:vector(count) ETV
attr interpolationmode none
attr recordingmode vector(count)
attr source packetDropReasonIsNoPortFound(packetDropped)
attr title "packets dropped (wrong port), count"
vector 57 partial_mesh.es_3.udp droppedPkBadChecksum:vector(count) ETV
attr interpolationmode none
attr recordingmode vector(count)
attr source packetDropReasonIsIncorrectlyReceived(packetDropped)
attr title "packets dropped (checksum error), count"
vector 58 partial_mesh.es_4.eth[0].phyLayer.transmitter transmitting:vector ETV
attr interpolationmode sample-hold
attr recordingmode vector
attr source "count(transmissionStarted) - count(transmissionEnded)"
attr title "transmitting state"
attr type int
vector 59 partial_mesh.es_4.udp passedUpPk:vector(count) ETV
attr interpolationmode none
attr recordingmode vector(count)
attr source packetSentToUpper
attr title "packets passed up, count"
vector 60 partial_mesh.es_4.udp droppedPkWrongPort:vector(count) ETV
attr interpolationmode none
attr recordingmode vector(count)
attr source packetDropReasonIsNoPortFound(packetDropped)
attr title "packets dropped (wrong port), count"
vector 61 partial_mesh.es_4.udp droppedPkBadChecksum:vector(count) ETV
attr interpolationmode none
attr recordingmode vector(count)
attr source packetDropReasonIsIncorrectlyReceived(packetDropped)
attr title "packets dropped (checksum error), count"
vector 62 partial_mesh.es_5.eth[0].phyLayer.transmitter transmitting:vector ETV
attr interpolationmode sample-hold
attr recordingmode vector
attr source "count(transmissionStarted) - count(transmissionEnded)"
attr title "transmitting state"
attr type int
vector 63 partial_mesh.es_5.udp passedUpPk:vector(count) ETV
attr interpolationmode none
attr recordingmode vector(count)
attr source packetSentToUpper
attr title "packets passed up, count"
vector 64 partial_mesh.es_5.udp droppedPkWrongPort:vector(count) ETV
attr interpolationmode none
attr recordingmode vector(count)
attr source packetDropReasonIsNoPortFound(packetDropped)
attr title "packets dropped (wrong port), count"
vector 65 partial_mesh.es_5.udp droppedPkBadChecksum:vector(count) ETV
attr interpolationmode none
attr recordingmode vector(count)
attr source packetDropReasonIsIncorrectlyReceived(packetDropped)
attr title "packets dropped (checksum error), count"
vector 66 partial_mesh.es_6.eth[0].phyLayer.transmitter transmitting:vector ETV
attr interpolationmode sample-hold
attr recordingmode vector
attr source "count(transmissionStarted) - count(transmissionEnded)"
attr title "transmitting state"
attr type int
vector 67 partial_mesh.es_6.udp passedUpPk:vector(count) ETV
attr interpolationmode none
attr recordingmode vector(count)
attr source packetSentToUpper
attr title "packets passed up, count"
vector 68 partial_mesh.es_6.udp droppedPkWrongPort:vector(count) ETV
attr interpolationmode none
attr recordingmode vector(count)
attr source packetDropReasonIsNoPortFound(packetDropped)
attr title "packets dropped (wrong port), count"
vector 69 partial_mesh.es_6.udp droppedPkBadChecksum:vector(count) ETV
attr interpolationmode none
attr recordingmode vector(count)
attr source packetDropReasonIsIncorrectlyReceived(packetDropped)
attr title "packets dropped (checksum error), count"
vector 70 partial_mesh.s_1.eth[0].phyLayer.transmitter transmitting:vector ETV
attr interpolationmode sample-hold
attr recordingmode vector
attr source "count(transmissionStarted) - count(transmissionEnded)"
attr title "transmitting state"
attr type int
vector 71 partial_mesh.s_1.eth[1].phyLayer.transmitter transmitting:vector ETV
attr interpolationmode sample-hold
attr recordingmode vector
attr source "count(transmissionStarted) - count(transmissionEnded)"
attr title "transmitting state"
attr type int
vector 72 partial_mesh.s_1.eth[2].phyLayer.transmitter transmitting:vector ETV
attr interpolationmode sample-hold
attr recordingmode vector
attr source "count(transmissionStarted) - count(transmissionEnded)"
attr title "transmitting state"
attr type int
vector 73 partial_mesh.s_2.eth[0].phyLayer.transmitter transmitting:vector ETV
attr interpolationmode sample-hold
attr recordingmode vector
attr source "count(transmissionStarted) - count(transmissionEnded)"
attr title "transmitting state"
attr type int
vector 74 partial_mesh.s_2.eth[1].phyLayer.transmitter transmitting:vector ETV
attr interpolationmode sample-hold
attr recordingmode vector
attr source "count(transmissionStarted) - count(transmissionEnded)"
attr title "transmitting state"
attr type int
vector 75 partial_mesh.s_2.eth[2].phyLayer.transmitter transmitting:vector ETV
attr interpolationmode sample-hold
attr recordingmode vector
attr source "count(transmissionStarted) - count(transmissionEnded)"
attr title "transmitting state"
attr type int
vector 76 partial_mesh.s_3.eth[0].phyLayer.transmitter transmitting:vector ETV
attr interpolationmode sample-hold
attr recordingmode vector
attr source "count(transmissionStarted) - count(transmissionEnded)"
attr title "transmitting state"
attr type int
vector 77 partial_mesh.s_3.eth[1].phyLayer.transmitter transmitting:vector ETV
attr interpolationmode sample-hold
attr recordingmode vector
attr source "count(transmissionStarted) - count(transmissionEnded)"
attr title "transmitting state"
attr type int
vector 78 partial_mesh.s_3.eth[2].phyLayer.transmitter transmitting:vector ETV
attr interpolationmode sample-hold
attr recordingmode vector
attr source "count(transmissionStarted) - count(transmissionEnded)"
attr title "transmitting state"
attr type int
vector 79 partial_mesh.s_4.eth[0].phyLayer.transmitter transmitting:vector ETV
attr interpolationmode sample-hold
attr recordingmode vector
attr source "count(transmissionStarted) - count(transmissionEnded)"
attr title "transmitting state"
attr type int
vector 80 partial_mesh.s_4.eth[1].phyLayer.transmitter transmitting:vector ETV
attr interpolationmode sample-hold
attr recordingmode vector
attr source "count(transmissionStarted) - count(transmissionEnded)"
attr title "transmitting state"
attr type int
vector 81 partial_mesh.s_4.eth[2].phyLayer.transmitter transmitting:vector ETV
attr interpolationmode sample-hold
attr recordingmode vector
attr source "count(transmissionStarted) - count(transmissionEnded)"
attr title "transmitting state"
attr type int
vector 82 partial_mesh.s_5.eth[0].phyLayer.transmitter transmitting:vector ETV
attr interpolationmode sample-hold
attr recordingmode vector
attr source "count(transmissionStarted) - count(transmissionEnded)"
attr title "transmitting state"
attr type int
vector 83 partial_mesh.s_5.eth[1].phyLayer.transmitter transmitting:vector ETV
attr interpolationmode sample-hold
attr recordingmode vector
attr source "count(transmissionStarted) - count(transmissionEnded)"
attr title "transmitting state"
attr type int
vector 84 partial_mesh.s_5.eth[2].phyLayer.transmitter transmitting:vector ETV
attr interpolationmode sample-hold
attr recordingmode vector
attr source "count(transmissionStarted) - count(transmissionEnded)"
attr title "transmitting state"
attr type int
vector 85 partial_mesh.s_5.eth[3].phyLayer.transmitter transmitting:vector ETV
attr interpolationmode sample-hold
attr recordingmode vector
attr source "count(transmissionStarted) - count(transmissionEnded)"
attr title "transmitting state"
attr type int
vector 86 partial_mesh.s_6.eth[0].phyLayer.transmitter transmitting:vector ETV
attr interpolationmode sample-hold
attr recordingmode vector
attr source "count(transmissionStarted) - count(transmissionEnded)"
attr title "transmitting state"
attr type int
vector 87 partial_mesh.s_6.eth[1].phyLayer.transmitter transmitting:vector ETV
attr interpolationmode sample-hold
attr recordingmode vector
attr source "count(transmissionStarted) - count(transmissionEnded)"
attr title "transmitting state"
attr type int
vector 88 partial_mesh.s_6.eth[2].phyLayer.transmitter transmitting:vector ETV
attr interpolationmode sample-hold
attr recordingmode vector
attr source "count(transmissionStarted) - count(transmissionEnded)"
attr title "transmitting state"
attr type int
vector 89 partial_mesh.s_6.eth[3].phyLayer.transmitter transmitting:vector ETV
attr interpolationmode sample-hold
attr recordingmode vector
attr source "count(transmissionStarted) - count(transmissionEnded)"
attr title "transmitting state"
attr type int
vector 90 partial_mesh.s_7.eth[0].phyLayer.transmitter transmitting:vector ETV
attr interpolationmode sample-hold
attr recordingmode vector
attr source "count(transmissionStarted) - count(transmissionEnded)"
attr title "transmitting state"
attr type int
vector 91 partial_mesh.s_7.eth[1].phyLayer.transmitter transmitting:vector ETV
attr interpolationmode sample-hold
attr recordingmode vector
attr source "count(transmissionStarted) - count(transmissionEnded)"
attr title "transmitting state"
attr type int
vector 92 partial_mesh.s_7.eth[2].phyLayer.transmitter transmitting:vector ETV
attr interpolationmode sample-hold
attr recordingmode vector
attr source "count(transmissionStarted) - count(transmissionEnded)"
attr title "transmitting state"
attr type int
vector 93 partial_mesh.s_7.eth[3].phyLayer.transmitter transmitting:vector ETV
attr interpolationmode sample-hold
attr recordingmode vector
attr source "count(transmissionStarted) - count(transmissionEnded)"
attr title "transmitting state"
attr type int
vector 94 partial_mesh.s_8.eth[0].phyLayer.transmitter transmitting:vector ETV
attr interpolationmode sample-hold
attr recordingmode vector
attr source "count(transmissionStarted) - count(transmissionEnded)"
attr title "transmitting state"
attr type int
vector 95 partial_mesh.s_8.eth[1].phyLayer.transmitter transmitting:vector ETV
attr interpolationmode sample-hold
attr recordingmode vector
attr source "count(transmissionStarted) - count(transmissionEnded)"
attr title "transmitting state"
attr type int
vector 96 partial_mesh.s_8.eth[2].phyLayer.transmitter transmitting:vector ETV
attr interpolationmode sample-hold
attr recordingmode vector
attr source "count(transmissionStarted) - count(transmissionEnded)"
attr title "transmitting state"
attr type int
vector 97 partial_mesh.s_8.eth[3].phyLayer.transmitter transmitting:vector ETV
attr interpolationmode sample-hold
attr recordingmode vector
attr source "count(transmissionStarted) - count(transmissionEnded)"
attr title "transmitting state"
attr type int
vector 98 partial_mesh.s_9.eth[0].phyLayer.transmitter transmitting:vector ETV
attr interpolationmode sample-hold
attr recordingmode vector
attr source "count(transmissionStarted) - count(transmissionEnded)"
attr title "transmitting state"
attr type int
vector 99 partial_mesh.s_9.eth[1].phyLayer.transmitter transmitting:vector ETV
attr interpolationmode sample-hold
attr recordingmode vector
attr source "count(transmissionStarted) - count(transmissionEnded)"
attr title "transmitting state"
attr type int
vector 100 partial_mesh.s_9.eth[2].phyLayer.transmitter transmitting:vector ETV
attr interpolationmode sample-hold
attr recordingmode vector
attr source "count(transmissionStarted) - count(transmissionEnded)"
attr title "transmitting state"
attr type int
vector 101 partial_mesh.s_10.eth[0].phyLayer.transmitter transmitting:vector ETV
attr interpolationmode sample-hold
attr recordingmode vector
attr source "count(transmissionStarted) - count(transmissionEnded)"
attr title "transmitting state"
attr type int
vector 102 partial_mesh.s_10.eth[1].phyLayer.transmitter transmitting:vector ETV
attr interpolationmode sample-hold
attr recordingmode vector
attr source "count(transmissionStarted) - count(transmissionEnded)"
attr title "transmitting state"
attr type int
vector 103 partial_mesh.s_10.eth[2].phyLayer.transmitter transmitting:vector ETV
attr interpolationmode sample-hold
attr recordingmode vector
attr source "count(transmissionStarted) - count(transmissionEnded)"
attr title "transmitting state"
attr type int
vector 104 partial_mesh.s_11.eth[0].phyLayer.transmitter transmitting:vector ETV
attr interpolationmode sample-hold
attr recordingmode vector
attr source "count(transmissionStarted) - count(transmissionEnded)"
attr title "transmitting state"
attr type int
vector 105 partial_mesh.s_11.eth[1].phyLayer.transmitter transmitting:vector ETV
attr interpolationmode sample-hold
attr recordingmode vector
attr source "count(transmissionStarted) - count(transmissionEnded)"
attr title "transmitting state"
attr type int
vector 106 partial_mesh.s_11.eth[2].phyLayer.transmitter transmitting:vector ETV
attr interpolationmode sample-hold
attr recordingmode vector
attr source "count(transmissionStarted) - count(transmissionEnded)"
attr title "transmitting state"
attr type int
vector 107 partial_mesh.s_12.eth[0].phyLayer.transmitter transmitting:vector ETV
attr interpolationmode sample-hold
attr recordingmode vector
attr source "count(transmissionStarted) - count(transmissionEnded)"
attr title "transmitting state"
attr type int
vector 108 partial_mesh.s_12.eth[1].phyLayer.transmitter transmitting:vector ETV
attr interpolationmode sample-hold
attr recordingmode vector
attr source "count(transmissionStarted) - count(transmissionEnded)"
attr title "transmitting state"
attr type int
vector 109 partial_mesh.s_12.eth[2].phyLayer.transmitter transmitting:vector ETV
attr interpolationmode sample-hold
attr recordingmode vector
attr source "count(transmissionStarted) - count(transmissionEnded)"
attr title "transmitting state"
attr type int
vector 110 partial_mesh.es_1.app[0].source packetLengths:vector ETV
attr interpolationmode none
attr moduledisplaypath partial_mesh.es_1.tsn-4.source
attr recordingmode vector
attr source packetLength(packetPushed)
attr title "packet lengths"
attr unit b
vector 111 partial_mesh.es_2.app[4].source packetLengths:vector ETV
attr interpolationmode none
attr moduledisplaypath partial_mesh.es_2.tsn-11.source
attr recordingmode vector
attr source packetLength(packetPushed)
attr title "packet lengths"
attr unit b
vector 112 partial_mesh.es_3.app[16].source packetLengths:vector ETV
attr interpolationmode none
attr moduledisplaypath partial_mesh.es_3.tsn-35.source
attr recordingmode vector
attr source packetLength(packetPushed)
attr title "packet lengths"
attr unit b
vector 113 partial_mesh.es_4.app[1].source packetLengths:vector ETV
attr interpolationmode none
attr moduledisplaypath partial_mesh.es_4.tsn-3.source
attr recordingmode vector
attr source packetLength(packetPushed)
attr title "packet lengths"
attr unit b
vector 114 partial_mesh.es_5.app[8].source packetLengths:vector ETV
attr interpolationmode none
attr moduledisplaypath partial_mesh.es_5.tsn-34.source
attr recordingmode vector
attr source packetLength(packetPushed)
attr title "packet lengths"
attr unit b
vector 115 partial_mesh.es_6.app[0].source packetLengths:vector ETV
attr interpolationmode none
attr moduledisplaypath partial_mesh.es_6.tsn-0.source
attr recordingmode vector
attr source packetLength(packetPushed)
attr title "packet lengths"
attr unit b
vector 116 partial_mesh.es_1.eth[0].macLayer.queue.transmissionGate[0] gateState:vector ETV
attr enum CLOSED,OPEN
attr interpolationmode sample-hold
attr recordingmode vector
attr source gateStateChanged
attr title "gate state"
attr type enum
vector 117 partial_mesh.es_1.eth[0].macLayer.queue.transmissionGate[1] gateState:vector ETV
attr enum CLOSED,OPEN
attr interpolationmode sample-hold
attr recordingmode vector
attr source gateStateChanged
attr title "gate state"
attr type enum
vector 118 partial_mesh.es_1.eth[0].macLayer.queue.transmissionGate[2] gateState:vector ETV
attr enum CLOSED,OPEN
attr interpolationmode sample-hold
attr recordingmode vector
[...]
5280	15329179 19 44174 44174 0.006 0.006 1 0 0 0 0
5281	15329198 19 44174 44174 0.006 0.006 1 0 0 0 0
5282	15329217 19 44174 44174 0.006 0.006 1 0 0 0 0
5283	15329236 19 44174 44174 0.006 0.006 1 0 0 0 0
5284	15329255 19 44174 44174 0.006 0.006 1 0 0 0 0
5285	15329274 25 44174 44174 0.006 0.006 1 3440000 3440000 3440000 11833600000000
5286	15329299 25 44174 44174 0.006 0.006 1 3440000 3440000 3440000 11833600000000
5287	15329324 19 44174 44174 0.006 0.006 1 0 0 0 0
5288	15329343 19 44174 44174 0.006 0.006 1 0 0 0 0
5289	15329362 19 44174 44174 0.006 0.006 1 0 0 0 0
5290	15329381 19 44174 44174 0.006 0.006 1 0 0 0 0
5291	15329400 19 44174 44174 0.006 0.006 1 0 0 0 0
5292	15329419 19 44174 44174 0.006 0.006 1 0 0 0 0
5293	15329438 19 44174 44174 0.006 0.006 1 0 0 0 0
5294	15329457 19 44174 44174 0.006 0.006 1 0 0 0 0
5295	15329476 19 44174 44174 0.006 0.006 1 0 0 0 0
5296	15329495 19 44174 44174 0.006 0.006 1 0 0 0 0
5297	15329514 19 44174 44174 0.006 0.006 1 0 0 0 0
5298	15329533 19 44174 44174 0.006 0.006 1 0 0 0 0
5299	15329552 19 44174 44174 0.006 0.006 1 0 0 0 0
5300	15329571 19 44174 44174 0.006 0.006 1 0 0 0 0
5301	15329590 25 44174 44174 0.006 0.006 1 3112000 3112000 3112000 9684544000000
5302	15329615 25 44174 44174 0.006 0.006 1 8880000 8880000 8880000 78854400000000
5303	15329640 25 44174 44174 0.006 0.006 1 8880000 8880000 8880000 78854400000000
5304	15329665 25 44174 44174 0.006 0.006 1 8880000 8880000 8880000 78854400000000
5305	15329690 19 44174 44174 0.006 0.006 1 0 0 0 0
5306	15329709 19 44174 44174 0.006 0.006 1 0 0 0 0
5307	15329728 19 44174 44174 0.006 0.006 1 0 0 0 0
5308	15329747 19 44174 44174 0.006 0.006 1 0 0 0 0
5309	15329766 19 44174 44174 0.006 0.006 1 0 0 0 0
5310	15329785 19 44174 44174 0.006 0.006 1 0 0 0 0
5311	15329804 19 44174 44174 0.006 0.006 1 0 0 0 0
5312	15329823 19 44174 44174 0.006 0.006 1 0 0 0 0
5313	15329842 19 44174 44174 0.006 0.006 1 0 0 0 0
5314	15329861 19 44174 44174 0.006 0.006 1 0 0 0 0
5315	15329880 19 44174 44174 0.006 0.006 1 0 0 0 0
5316	15329899 19 44174 44174 0.006 0.006 1 0 0 0 0
5317	15329918 19 44174 44174 0.006 0.006 1 0 0 0 0
5318	15329937 19 44174 44174 0.006 0.006 1 0 0 0 0
5319	15329956 25 44174 44174 0.006 0.006 1 8880000 8880000 8880000 78854400000000
5320	15329981 25 44174 44174 0.006 0.006 1 8880000 8880000 8880000 78854400000000
5321	15330006 25 44174 44174 0.006 0.006 1 8880000 8880000 8880000 78854400000000
5322	15330031 19 44174 44174 0.006 0.006 1 0 0 0 0
5323	15330050 25 44174 44174 0.006 0.006 1 9520000 9520000 9520000 90630400000000
5324	15330075 19 44174 44174 0.006 0.006 1 0 0 0 0
5325	15330094 19 44174 44174 0.006 0.006 1 0 0 0 0
5326	15330113 19 44174 44174 0.006 0.006 1 0 0 0 0
5327	15330132 19 44174 44174 0.006 0.006 1 0 0 0 0
5328	15330151 19 44174 44174 0.006 0.006 1 0 0 0 0
5329	15330170 25 44174 44174 0.006 0.006 1 9376000 9376000 9376000 87909376000000
5330	15330195 25 44174 44174 0.006 0.006 1 9376000 9376000 9376000 87909376000000
5331	15330220 19 44174 44174 0.006 0.006 1 0 0 0 0
5332	15330239 19 44174 44174 0.006 0.006 1 0 0 0 0
5333	15330258 19 44174 44174 0.006 0.006 1 0 0 0 0
5334	15330277 19 44174 44174 0.006 0.006 1 0 0 0 0
5335	15330296 19 44174 44174 0.006 0.006 1 0 0 0 0
5336	15330315 19 44174 44174 0.006 0.006 1 0 0 0 0
5337	15330334 19 44174 44174 0.006 0.006 1 0 0 0 0
5338	15330353 19 44174 44174 0.006 0.006 1 0 0 0 0
5339	15330372 19 44174 44174 0.006 0.006 1 0 0 0 0
5340	15330391 19 44174 44174 0.006 0.006 1 0 0 0 0
5341	15330410 19 44174 44174 0.006 0.006 1 0 0 0 0
5342	15330429 19 44174 44174 0.006 0.006 1 0 0 0 0
5343	15330448 19 44174 44174 0.006 0.006 1 0 0 0 0
5344	15330467 19 44174 44174 0.006 0.006 1 0 0 0 0
5345	15330486 25 44174 44174 0.006 0.006 1 7296000 7296000 7296000 53231616000000
5346	15330511 25 44174 44174 0.006 0.006 1 7296000 7296000 7296000 53231616000000
5347	15330536 19 44174 44174 0.006 0.006 1 0 0 0 0
5348	15330555 19 44174 44174 0.006 0.006 1 0 0 0 0
5349	15330574 19 44174 44174 0.006 0.006 1 0 0 0 0
5350	15330593 19 44174 44174 0.006 0.006 1 0 0 0 0
5351	15330612 19 44174 44174 0.006 0.006 1 0 0 0 0
5352	15330631 19 44174 44174 0.006 0.006 1 0 0 0 0
5353	15330650 19 44174 44174 0.006 0.006 1 0 0 0 0
5354	15330669 19 44174 44174 0.006 0.006 1 0 0 0 0
5355	15330688 19 44174 44174 0.006 0.006 1 0 0 0 0
5356	15330707 19 44174 44174 0.006 0.006 1 0 0 0 0
5357	15330726 19 44174 44174 0.006 0.006 1 0 0 0 0
5358	15330745 19 44174 44174 0.006 0.006 1 0 0 0 0
5359	15330764 19 44174 44174 0.006 0.006 1 0 0 0 0
5360	15330783 19 44174 44174 0.006 0.006 1 0 0 0 0
5361	15330802 25 44174 44174 0.006 0.006 1 4208000 4208000 4208000 17707264000000
5362	15330827 25 44174 44174 0.006 0.006 1 4208000 4208000 4208000 17707264000000
5363	15330852 19 44174 44174 0.006 0.006 1 0 0 0 0
5364	15330871 19 44174 44174 0.006 0.006 1 0 0 0 0
5365	15330890 19 44174 44174 0.006 0.006 1 0 0 0 0
5366	15330909 19 44174 44174 0.006 0.006 1 0 0 0 0
5367	15330928 19 44174 44174 0.006 0.006 1 0 0 0 0
5368	15330947 19 44174 44174 0.006 0.006 1 0 0 0 0
5369	15330966 19 44174 44174 0.006 0.006 1 0 0 0 0
5370	15330985 19 44174 44174 0.006 0.006 1 0 0 0 0
5371	15331004 19 44174 44174 0.006 0.006 1 0 0 0 0
5372	15331023 19 44174 44174 0.006 0.006 1 0 0 0 0
5373	15331042 19 44174 44174 0.006 0.006 1 0 0 0 0
5374	15331061 19 44174 44174 0.006 0.006 1 0 0 0 0
5375	15331080 19 44174 44174 0.006 0.006 1 0 0 0 0
5376	15331099 19 44174 44174 0.006 0.006 1 0 0 0 0
5377	15331118 25 44174 44174 0.006 0.006 1 4240000 4240000 4240000 17977600000000
5378	15331143 25 44174 44174 0.006 0.006 1 4240000 4240000 4240000 17977600000000
5379	15331168 19 44174 44174 0.006 0.006 1 0 0 0 0
5380	15331187 19 44174 44174 0.006 0.006 1 0 0 0 0
5381	15331206 19 44174 44174 0.006 0.006 1 0 0 0 0
5382	15331225 19 44174 44174 0.006 0.006 1 0 0 0 0
5383	15331244 19 44174 44174 0.006 0.006 1 0 0 0 0
5384	15331263 19 44174 44174 0.006 0.006 1 0 0 0 0
5385	15331282 19 44174 44174 0.006 0.006 1 0 0 0 0
5386	15331301 19 44174 44174 0.006 0.006 1 0 0 0 0
5387	15331320 19 44174 44174 0.006 0.006 1 0 0 0 0
5388	15331339 19 44174 44174 0.006 0.006 1 0 0 0 0
5389	15331358 19 44174 44174 0.006 0.006 1 0 0 0 0
5390	15331377 19 44174 44174 0.006 0.006 1 0 0 0 0
5391	15331396 19 44174 44174 0.006 0.006 1 0 0 0 0
5392	15331415 19 44174 44174 0.006 0.006 1 0 0 0 0
5393	15331434 25 44174 44174 0.006 0.006 1 7560000 7560000 7560000 57153600000000
5394	15331459 19 44174 44174 0.006 0.006 1 0 0 0 0
5395	15331478 19 44174 44174 0.006 0.006 1 0 0 0 0
5396	15331497 19 44174 44174 0.006 0.006 1 0 0 0 0
5397	15331516 19 44174 44174 0.006 0.006 1 0 0 0 0
5398	15331535 25 44174 44174 0.006 0.006 1 9800000 9800000 9800000 96040000000000
5399	15331560 25 44174 44174 0.006 0.006 1 9456000 9456000 9456000 89415936000000
5400	15331585 25 44174 44174 0.006 0.006 1 9456000 9456000 9456000 89415936000000
5401	15331610 24 44174 44174 0.006 0.006 1 344000 344000 344000 118336000000
5402	15331634 24 44174 44174 0.006 0.006 1 344000 344000 344000 118336000000
5403	15331658 19 44174 44174 0.006 0.006 1 0 0 0 0
5404	15331677 19 44174 44174 0.006 0.006 1 0 0 0 0
5405	15331696 19 44174 44174 0.006 0.006 1 0 0 0 0
5406	15331715 19 44174 44174 0.006 0.006 1 0 0 0 0
5407	15331734 19 44174 44174 0.006 0.006 1 0 0 0 0
5408	15331753 19 44174 44174 0.006 0.006 1 0 0 0 0
5409	15331772 19 44174 44174 0.006 0.006 1 0 0 0 0
5410	15331791 19 44174 44174 0.006 0.006 1 0 0 0 0
5411	15331810 19 44174 44174 0.006 0.006 1 0 0 0 0
5412	15331829 19 44174 44174 0.006 0.006 1 0 0 0 0
5413	15331848 19 44174 44174 0.006 0.006 1 0 0 0 0
5414	15331867 19 44174 44174 0.006 0.006 1 0 0 0 0
5415	15331886 25 44174 44174 0.006 0.006 1 9800000 9800000 9800000 96040000000000
5416	15331911 25 44174 44174 0.006 0.006 1 9800000 9800000 9800000 96040000000000
5417	15331936 25 44174 44174 0.006 0.006 1 9800000 9800000 9800000 96040000000000
5418	15331961 19 44174 44174 0.006 0.006 1 0 0 0 0
5419	15331980 26 44174 44174 0.006 0.006 1 10440000 10440000 10440000 1.089936e+14
5420	15332006 19 44174 44174 0.006 0.006 1 0 0 0 0
5421	15332025 25 44174 44174 0.006 0.006 1 9336000 9336000 9336000 87160896000000
5422	15332050 25 44174 44174 0.006 0.006 1 2624000 2624000 2624000 6885376000000
5423	15332075 25 44174 44174 0.006 0.006 1 2624000 2624000 2624000 6885376000000
5424	15332100 19 44174 44174 0.006 0.006 1 0 0 0 0
5425	15332119 19 44174 44174 0.006 0.006 1 0 0 0 0
5426	15332138 19 44174 44174 0.006 0.006 1 0 0 0 0
5427	15332157 19 44174 44174 0.006 0.006 1 0 0 0 0
5428	15332176 19 44174 44174 0.006 0.006 1 0 0 0 0
5429	15332195 19 44174 44174 0.006 0.006 1 0 0 0 0
5430	15332214 19 44174 44174 0.006 0.006 1 0 0 0 0
5431	15332233 19 44174 44174 0.006 0.006 1 0 0 0 0
5432	15332252 19 44174 44174 0.006 0.006 1 0 0 0 0
5433	15332271 19 44174 44174 0.006 0.006 1 0 0 0 0
5434	15332290 19 44174 44174 0.006 0.006 1 0 0 0 0
5435	15332309 19 44174 44174 0.006 0.006 1 0 0 0 0
5436	15332328 19 44174 44174 0.006 0.006 1 0 0 0 0
5437	15332347 19 44174 44174 0.006 0.006 1 0 0 0 0
5438	15332366 26 44174 44174 0.006 0.006 1 12400000 12400000 12400000 1.5376e+14
5439	15332392 26 44174 44174 0.006 0.006 1 12400000 12400000 12400000 1.5376e+14
5440	15332418 19 44174 44174 0.006 0.006 1 0 0 0 0
5441	15332437 19 44174 44174 0.006 0.006 1 0 0 0 0
5442	15332456 19 44174 44174 0.006 0.006 1 0 0 0 0
5443	15332475 19 44174 44174 0.006 0.006 1 0 0 0 0
5444	15332494 19 44174 44174 0.006 0.006 1 0 0 0 0
5445	15332513 19 44174 44174 0.006 0.006 1 0 0 0 0
5446	15332532 19 44174 44174 0.006 0.006 1 0 0 0 0
5447	15332551 19 44174 44174 0.006 0.006 1 0 0 0 0
5448	15332570 19 44174 44174 0.006 0.006 1 0 0 0 0
5449	15332589 19 44174 44174 0.006 0.006 1 0 0 0 0
5450	15332608 19 44174 44174 0.006 0.006 1 0 0 0 0
5451	15332627 19 44174 44174 0.006 0.006 1 0 0 0 0
5452	15332646 19 44174 44174 0.006 0.006 1 0 0 0 0
5453	15332665 19 44174 44174 0.006 0.006 1 0 0 0 0
5454	15332684 19 44174 44174 0.006 0.006 1 0 0 0 0
5455	15332703 19 44174 44174 0.006 0.006 1 0 0 0 0
5456	15332722 19 44174 44174 0.006 0.006 1 0 0 0 0
5457	15332741 19 44174 44174 0.006 0.006 1 0 0 0 0
5458	15332760 19 44174 44174 0.006 0.006 1 0 0 0 0
5459	15332779 26 44174 44174 0.006 0.006 1 10120000 10120000 10120000 1.024144e+14
5460	15332805 26 44174 44174 0.006 0.006 1 10120000 10120000 10120000 1.024144e+14
5461	15332831 19 44174 44174 0.006 0.006 1 0 0 0 0
5462	15332850 19 44174 44174 0.006 0.006 1 0 0 0 0
5463	15332869 19 44174 44174 0.006 0.006 1 0 0 0 0
5464	15332888 19 44174 44174 0.006 0.006 1 0 0 0 0
5465	15332907 19 44174 44174 0.006 0.006 1 0 0 0 0
5466	15332926 19 44174 44174 0.006 0.006 1 0 0 0 0
5467	15332945 19 44174 44174 0.006 0.006 1 0 0 0 0
5468	15332964 19 44174 44174 0.006 0.006 1 0 0 0 0
5469	15332983 19 44174 44174 0.006 0.006 1 0 0 0 0
5470	15333002 19 44174 44174 0.006 0.006 1 0 0 0 0
5471	15333021 19 44174 44174 0.006 0.006 1 0 0 0 0
5472	15333040 19 44174 44174 0.006 0.006 1 0 0 0 0
5473	15333059 19 44174 44174 0.006 0.006 1 0 0 0 0
5474	15333078 19 44174 44174 0.006 0.006 1 0 0 0 0
5475	15333097 26 44174 44174 0.006 0.006 1 17392000 17392000 17392000 3.02481664e+14
5476	15333123 25 44174 44174 0.006 0.006 1 9328000 9328000 9328000 87011584000000
5477	15333148 25 44174 44174 0.006 0.006 1 9328000 9328000 9328000 87011584000000
5478	15333173 25 44174 44174 0.006 0.006 1 8064000 8064000 8064000 65028096000000
5479	15333198 25 44174 44174 0.006 0.006 1 8064000 8064000 8064000 65028096000000
5480	15333223 19 44174 44174 0.006 0.006 1 0 0 0 0
5481	15333242 19 44174 44174 0.006 0.006 1 0 0 0 0
5482	15333261 19 44174 44174 0.006 0.006 1 0 0 0 0
5483	15333280 19 44174 44174 0.006 0.006 1 0 0 0 0
5484	15333299 19 44174 44174 0.006 0.006 1 0 0 0 0
5485	15333318 19 44174 44174 0.006 0.006 1 0 0 0 0
5486	15333337 19 44174 44174 0.006 0.006 1 0 0 0 0
5487	15333356 19 44174 44174 0.006 0.006 1 0 0 0 0
5488	15333375 19 44174 44174 0.006 0.006 1 0 0 0 0
5489	15333394 19 44174 44174 0.006 0.006 1 0 0 0 0
5490	15333413 19 44174 44174 0.006 0.006 1 0 0 0 0
5491	15333432 19 44174 44174 0.006 0.006 1 0 0 0 0
5492	15333451 26 44174 44174 0.006 0.006 1 17392000 17392000 17392000 3.02481664e+14
5493	15333477 26 44174 44174 0.006 0.006 1 17392000 17392000 17392000 3.02481664e+14
5494	15333503 26 44174 44174 0.006 0.006 1 17392000 17392000 17392000 3.02481664e+14
5495	15333529 19 44174 44174 0.006 0.006 1 0 0 0 0
5496	15333548 26 44174 44174 0.006 0.006 1 18448000 18448000 18448000 3.40328704e+14
5497	15333574 19 44174 44174 0.006 0.006 1 0 0 0 0
5498	15333593 19 44174 44174 0.006 0.006 1 0 0 0 0
5499	15333612 19 44174 44174 0.006 0.006 1 0 0 0 0
5500	15333631 19 44174 44174 0.006 0.006 1 0 0 0 0
5501	15333650 19 44174 44174 0.006 0.006 1 0 0 0 0
5502	15333669 19 44174 44174 0.006 0.006 1 0 0 0 0
5503	15333688 19 44174 44174 0.006 0.006 1 0 0 0 0
5504	15333707 19 44174 44174 0.006 0.006 1 0 0 0 0
5505	15333726 19 44174 44174 0.006 0.006 1 0 0 0 0
5506	15333745 19 44174 44174 0.006 0.006 1 0 0 0 0
5507	15333764 19 44174 44174 0.006 0.006 1 0 0 0 0
5508	15333783 19 44174 44174 0.006 0.006 1 0 0 0 0
5509	15333802 19 44174 44174 0.006 0.006 1 0 0 0 0
5510	15333821 19 44174 44174 0.006 0.006 1 0 0 0 0
5511	15333840 19 44174 44174 0.006 0.006 1 0 0 0 0
5512	15333859 19 44174 44174 0.006 0.006 1 0 0 0 0
5513	15333878 19 44174 44174 0.006 0.006 1 0 0 0 0
5514	15333897 26 44174 44174 0.006 0.006 1 14680000 14680000 14680000 2.155024e+14
5515	15333923 19 44174 44174 0.006 0.006 1 0 0 0 0
5516	15333942 19 44174 44174 0.006 0.006 1 0 0 0 0
5517	15333961 19 44174 44174 0.006 0.006 1 0 0 0 0
5518	15333980 19 44174 44174 0.006 0.006 1 0 0 0 0
5519	15333999 19 44174 44174 0.006 0.006 1 0 0 0 0
5520	15334018 25 44174 44174 0.006 0.006 1 5936000 5936000 5936000 35236096000000
5521	15334043 25 44174 44174 0.006 0.006 1 5936000 5936000 5936000 35236096000000
5522	15334068 19 44174 44174 0.006 0.006 1 0 0 0 0
5523	15334087 19 44174 44174 0.006 0.006 1 0 0 0 0
5524	15334106 19 44174 44174 0.006 0.006 1 0 0 0 0
5525	15334125 19 44174 44174 0.006 0.006 1 0 0 0 0
5526	15334144 19 44174 44174 0.006 0.006 1 0 0 0 0
5527	15334163 19 44174 44174 0.006 0.006 1 0 0 0 0
5528	15334182 19 44174 44174 0.006 0.006 1 0 0 0 0
5529	15334201 19 44174 44174 0.006 0.006 1 0 0 0 0
5530	15334220 19 44174 44174 0.006 0.006 1 0 0 0 0
5531	15334239 19 44174 44174 0.006 0.006 1 0 0 0 0
5532	15334258 19 44174 44174 0.006 0.006 1 0 0 0 0
5533	15334277 19 44174 44174 0.006 0.006 1 0 0 0 0
5534	15334296 19 44174 44174 0.006 0.006 1 0 0 0 0
5535	15334315 19 44174 44174 0.006 0.006 1 0 0 0 0
5536	15334334 26 44174 44174 0.006 0.006 1 18448000 18448000 18448000 3.40328704e+14
5537	15334360 26 44174 44174 0.006 0.006 1 13168000 13168000 13168000 1.73396224e+14
5538	15334386 26 44174 44174 0.006 0.006 1 13168000 13168000 13168000 1.73396224e+14
5539	15334412 25 44174 44174 0.006 0.006 1 8064000 8064000 8064000 65028096000000
5540	15334437 25 44174 44174 0.006 0.006 1 8064000 8064000 8064000 65028096000000
5541	15334462 19 44174 44174 0.006 0.006 1 0 0 0 0
5542	15334481 19 44174 44174 0.006 0.006 1 0 0 0 0
5543	15334500 19 44174 44174 0.006 0.006 1 0 0 0 0
5544	15334519 19 44174 44174 0.006 0.006 1 0 0 0 0
5545	15334538 19 44174 44174 0.006 0.006 1 0 0 0 0
5546	15334557 19 44174 44174 0.006 0.006 1 0 0 0 0
5547	15334576 19 44174 44174 0.006 0.006 1 0 0 0 0
5548	15334595 19 44174 44174 0.006 0.006 1 0 0 0 0
5549	15334614 19 44174 44174 0.006 0.006 1 0 0 0 0
5550	15334633 19 44174 44174 0.006 0.006 1 0 0 0 0
5551	15334652 19 44174 44174 0.006 0.006 1 0 0 0 0
5552	15334671 19 44174 44174 0.006 0.006 1 0 0 0 0
5553	15334690 19 44174 44174 0.006 0.006 1 0 0 0 0
5554	15334709 19 44174 44174 0.006 0.006 1 0 0 0 0
5555	15334728 19 44174 44174 0.006 0.006 1 0 0 0 0
5556	15334747 19 44174 44174 0.006 0.006 1 0 0 0 0
5557	15334766 19 44174 44174 0.006 0.006 1 0 0 0 0
5558	15334785 19 44174 44174 0.006 0.006 1 0 0 0 0
5559	15334804 19 44174 44174 0.006 0.006 1 0 0 0 0
5560	15334823 19 44174 44174 0.006 0.006 1 0 0 0 0
5561	15334842 19 44174 44174 0.006 0.006 1 0 0 0 0
5562	15334861 19 44174 44174 0.006 0.006 1 0 0 0 0
5563	15334880 19 44174 44174 0.006 0.006 1 0 0 0 0
5564	15334899 19 44174 44174 0.006 0.006 1 0 0 0 0
5565	15334918 19 44174 44174 0.006 0.006 1 0 0 0 0
5566	15334937 19 44174 44174 0.006 0.006 1 0 0 0 0
5567	15334956 19 44174 44174 0.006 0.006 1 0 0 0 0
5568	15334975 19 44174 44174 0.006 0.006 1 0 0 0 0
5569	15334994 19 44174 44174 0.006 0.006 1 0 0 0 0
5570	15335013 19 44174 44174 0.006 0.006 1 0 0 0 0
5571	15335032 25 44174 44174 0.006 0.006 1 9520000 9520000 9520000 90630400000000
5572	15335057 25 44174 44174 0.006 0.006 1 6880000 6880000 6880000 47334400000000
5573	15335082 19 44174 44174 0.006 0.006 1 0 0 0 0
5574	15335101 19 44174 44174 0.006 0.006 1 0 0 0 0
5575	15335120 19 44174 44174 0.006 0.006 1 0 0 0 0
5576	15335139 19 44174 44174 0.006 0.006 1 0 0 0 0
5577	15335158 25 44174 44174 0.006 0.006 1 5936000 5936000 5936000 35236096000000
5578	15335183 25 44174 44174 0.006 0.006 1 5936000 5936000 5936000 35236096000000
5579	15335208 19 44174 44174 0.006 0.006 1 0 0 0 0
5580	15335227 19 44174 44174 0.006 0.006 1 0 0 0 0
5581	15335246 19 44174 44174 0.006 0.006 1 0 0 0 0
5582	15335265 19 44174 44174 0.006 0.006 1 0 0 0 0
5583	15335284 19 44174 44174 0.006 0.006 1 0 0 0 0
5584	15335303 19 44174 44174 0.006 0.006 1 0 0 0 0
5585	15335322 19 44174 44174 0.006 0.006 1 0 0 0 0
5586	15335341 19 44174 44174 0.006 0.006 1 0 0 0 0
5587	15335360 19 44174 44174 0.006 0.006 1 0 0 0 0
5588	15335379 19 44174 44174 0.006 0.006 1 0 0 0 0
5589	15335398 19 44174 44174 0.006 0.006 1 0 0 0 0
5590	15335417 19 44174 44174 0.006 0.006 1 0 0 0 0
5591	15335436 19 44174 44174 0.006 0.006 1 0 0 0 0
5592	15335455 19 44174 44174 0.006 0.006 1 0 0 0 0
5593	15335474 25 44174 44174 0.006 0.006 1 9120000 9120000 9120000 83174400000000
5594	15335499 25 44174 44174 0.006 0.006 1 9120000 9120000 9120000 83174400000000
5595	15335524 25 44174 44174 0.006 0.006 1 9120000 9120000 9120000 83174400000000
5596	15335549 19 44174 44174 0.006 0.006 1 0 0 0 0
5597	15335568 19 44174 44174 0.006 0.006 1 0 0 0 0
5598	15335587 19 44174 44174 0.006 0.006 1 0 0 0 0
5599	15335606 19 44174 44174 0.006 0.006 1 0 0 0 0
5600	15335625 19 44174 44174 0.006 0.006 1 0 0 0 0
5601	15335644 19 44174 44174 0.006 0.006 1 0 0 0 0
5602	15335663 19 44174 44174 0.006 0.006 1 0 0 0 0
5603	15335682 19 44174 44174 0.006 0.006 1 0 0 0 0
5604	15335701 19 44174 44174 0.006 0.006 1 0 0 0 0
5605	15335720 19 44174 44174 0.006 0.006 1 0 0 0 0
5606	15335739 19 44174 44174 0.006 0.006 1 0 0 0 0
5607	15335758 19 44174 44174 0.006 0.006 1 0 0 0 0
5608	15335777 19 44174 44174 0.006 0.006 1 0 0 0 0
5609	15335796 19 44174 44174 0.006 0.006 1 0 0 0 0
5610	15335815 25 44174 44174 0.006 0.006 1 9120000 9120000 9120000 83174400000000
5611	15335840 25 44174 44174 0.006 0.006 1 9120000 9120000 9120000 83174400000000
5612	15335865 25 44174 44174 0.006 0.006 1 9120000 9120000 9120000 83174400000000
5613	15335890 19 44174 44174 0.006 0.006 1 0 0 0 0
5614	15335909 25 44174 44174 0.006 0.006 1 9760000 9760000 9760000 95257600000000
5615	15335934 19 44174 44174 0.006 0.006 1 0 0 0 0
5616	15335953 25 44174 44174 0.006 0.006 1 9760000 9760000 9760000 95257600000000
5617	15335978 25 44174 44174 0.006 0.006 1 9760000 9760000 9760000 95257600000000
5618	15336003 19 44174 44174 0.006 0.006 1 0 0 0 0
5619	15336022 19 44174 44174 0.006 0.006 1 0 0 0 0
5620	15336041 19 44174 44174 0.006 0.006 1 0 0 0 0
5621	15336060 19 44174 44174 0.006 0.006 1 0 0 0 0
5622	15336079 19 44174 44174 0.006 0.006 1 0 0 0 0
5623	15336098 19 44174 44174 0.006 0.006 1 0 0 0 0
5624	15336117 19 44174 44174 0.006 0.006 1 0 0 0 0
5625	15336136 19 44174 44174 0.006 0.006 1 0 0 0 0
5626	15336155 19 44174 44174 0.006 0.006 1 0 0 0 0
5627	15336174 19 44174 44174 0.006 0.006 1 0 0 0 0
5628	15336193 19 44174 44174 0.006 0.006 1 0 0 0 0
5629	15336212 19 44174 44174 0.006 0.006 1 0 0 0 0
5630	15336231 19 44174 44174 0.006 0.006 1 0 0 0 0
5631	15336250 19 44174 44174 0.006 0.006 1 0 0 0 0

